<?xml version="1.0" encoding="UTF-8"?>

<!-- generated on 2022-11-02 11:45:06 by Eclipse SUMO GUI Version 1.14.1
-->

<configuration xmlns:xsi="http://www.w3.org/2001/XMLSchema-instance" xsi:noNamespaceSchemaLocation="http://sumo.dlr.de/xsd/sumoConfiguration.xsd">

    <input>
        <net-file value="osm.net.xml"/>
        <route-files value="osm_pt.rou.xml"/>
        <additional-files value="osm.add.xml"/>
    </input>

</configuration>
