<?xml version="1.0" encoding="UTF-8"?>

<!-- generated on 2023-02-16 14:32:11 by Eclipse SUMO netedit Version 1.15.0
<configuration xmlns:xsi="http://www.w3.org/2001/XMLSchema-instance" xsi:noNamespaceSchemaLocation="http://sumo.dlr.de/xsd/netconvertConfiguration.xsd">

    <input>
        <sumo-net-file value="osm.net.xml"/>
    </input>

    <output>
        <output-file value="osm.net.xml"/>
        <output.street-names value="true"/>
    </output>

    <processing>
        <geometry.min-radius.fix.railways value="false"/>
        <geometry.max-grade.fix value="false"/>
        <offset.disable-normalization value="true"/>
        <lefthand value="0"/>
    </processing>

    <junctions>
        <no-turnarounds value="true"/>
        <junctions.corner-detail value="5"/>
        <junctions.limit-turn-speed value="5.50"/>
        <rectangular-lane-cut value="0"/>
    </junctions>

    <pedestrian>
        <walkingareas value="0"/>
    </pedestrian>

    <netedit>
        <additional-files value="/home/tjzhang/Documents/VEINS_Connected_Vehicles/Interstate_5_reduced/osm.add.xml"/>
    </netedit>

</configuration>
-->

<net version="1.9" junctionCornerDetail="5" limitTurnSpeed="5.50" xmlns:xsi="http://www.w3.org/2001/XMLSchema-instance" xsi:noNamespaceSchemaLocation="http://sumo.dlr.de/xsd/net_file.xsd">

    <location netOffset="-386338.38,-3754869.99" convBoundary="8039.15,296.66,13387.63,7205.53" origBoundary="-118.231168,33.929474,-118.085324,34.044103" projParameter="+proj=utm +zone=11 +ellps=WGS84 +datum=WGS84 +units=m +no_defs"/>

    <type id="highway.bridleway" priority="1" numLanes="1" speed="2.78" allow="pedestrian" oneway="1" width="2.00"/>
    <type id="highway.bus_guideway" priority="1" numLanes="1" speed="27.78" allow="bus" oneway="1"/>
    <type id="highway.cycleway" priority="1" numLanes="1" speed="8.33" allow="bicycle" oneway="0" width="1.00"/>
    <type id="highway.footway" priority="1" numLanes="1" speed="2.78" allow="pedestrian" oneway="1" width="2.00"/>
    <type id="highway.ford" priority="1" numLanes="1" speed="2.78" allow="army" oneway="0"/>
    <type id="highway.living_street" priority="2" numLanes="1" speed="2.78" disallow="tram rail_urban rail rail_electric rail_fast ship" oneway="0"/>
    <type id="highway.motorway" priority="14" numLanes="2" speed="39.44" allow="private emergency authority army vip passenger hov taxi bus coach delivery truck trailer motorcycle evehicle custom1 custom2" oneway="1"/>
    <type id="highway.motorway_link" priority="9" numLanes="1" speed="22.22" allow="private emergency authority army vip passenger hov taxi bus coach delivery truck trailer motorcycle evehicle custom1 custom2" oneway="1"/>
    <type id="highway.path" priority="1" numLanes="1" speed="2.78" allow="pedestrian bicycle" oneway="0" width="2.00"/>
    <type id="highway.pedestrian" priority="1" numLanes="1" speed="2.78" allow="pedestrian" oneway="1" width="2.00"/>
    <type id="highway.primary" priority="12" numLanes="2" speed="27.78" disallow="tram rail_urban rail rail_electric rail_fast ship" oneway="0"/>
    <type id="highway.primary_link" priority="7" numLanes="1" speed="22.22" disallow="tram rail_urban rail rail_electric rail_fast ship" oneway="0"/>
    <type id="highway.raceway" priority="15" numLanes="2" speed="83.33" allow="vip" oneway="0"/>
    <type id="highway.residential" priority="3" numLanes="1" speed="13.89" disallow="tram rail_urban rail rail_electric rail_fast ship" oneway="0"/>
    <type id="highway.secondary" priority="11" numLanes="1" speed="27.78" disallow="tram rail_urban rail rail_electric rail_fast ship" oneway="0"/>
    <type id="highway.secondary_link" priority="6" numLanes="1" speed="22.22" disallow="tram rail_urban rail rail_electric rail_fast ship" oneway="0"/>
    <type id="highway.service" priority="1" numLanes="1" speed="5.56" allow="pedestrian delivery bicycle" oneway="0"/>
    <type id="highway.stairs" priority="1" numLanes="1" speed="1.39" allow="pedestrian" oneway="1" width="2.00"/>
    <type id="highway.step" priority="1" numLanes="1" speed="1.39" allow="pedestrian" oneway="1" width="2.00"/>
    <type id="highway.steps" priority="1" numLanes="1" speed="1.39" allow="pedestrian" oneway="1" width="2.00"/>
    <type id="highway.tertiary" priority="10" numLanes="1" speed="22.22" disallow="tram rail_urban rail rail_electric rail_fast ship" oneway="0"/>
    <type id="highway.tertiary_link" priority="5" numLanes="1" speed="22.22" disallow="tram rail_urban rail rail_electric rail_fast ship" oneway="0"/>
    <type id="highway.track" priority="1" numLanes="1" speed="5.56" allow="pedestrian motorcycle moped bicycle" oneway="0"/>
    <type id="highway.trunk" priority="13" numLanes="2" speed="27.78" disallow="pedestrian bicycle tram rail_urban rail rail_electric rail_fast ship" oneway="0"/>
    <type id="highway.trunk_link" priority="8" numLanes="1" speed="22.22" disallow="pedestrian bicycle tram rail_urban rail rail_electric rail_fast ship" oneway="0"/>
    <type id="highway.unclassified" priority="4" numLanes="1" speed="13.89" disallow="tram rail_urban rail rail_electric rail_fast ship" oneway="0"/>
    <type id="highway.unsurfaced" priority="1" numLanes="1" speed="8.33" disallow="tram rail_urban rail rail_electric rail_fast ship" oneway="0"/>
    <type id="railway.highspeed" priority="21" numLanes="1" speed="69.44" allow="rail_fast" oneway="1"/>
    <type id="railway.light_rail" priority="19" numLanes="1" speed="27.78" allow="rail_urban" oneway="1"/>
    <type id="railway.preserved" priority="16" numLanes="1" speed="27.78" allow="rail" oneway="1"/>
    <type id="railway.rail" priority="20" numLanes="1" speed="44.44" allow="rail" oneway="1"/>
    <type id="railway.subway" priority="18" numLanes="1" speed="27.78" allow="rail_urban" oneway="1"/>
    <type id="railway.tram" priority="17" numLanes="1" speed="13.89" allow="tram" oneway="1"/>

    <edge id=":122397020_0" function="internal">
        <lane id=":122397020_0_0" index="0" allow="private emergency authority army vip passenger hov taxi bus coach delivery truck trailer motorcycle evehicle custom1 custom2" speed="22.22" length="4.63" shape="10836.43,3102.13 10837.44,3101.21 10838.16,3100.60 10838.92,3100.03 10840.03,3099.23"/>
    </edge>
    <edge id=":122397020_1" function="internal">
        <lane id=":122397020_1_0" index="0" allow="private emergency authority army vip passenger hov taxi bus coach delivery truck trailer motorcycle evehicle custom1 custom2" speed="18.18" length="4.62" shape="10838.60,3104.48 10839.62,3103.57 10840.36,3102.99 10841.19,3102.54 10842.44,3101.99"/>
        <lane id=":122397020_1_1" index="1" allow="private emergency authority army vip passenger hov taxi bus coach delivery truck trailer motorcycle evehicle custom1 custom2" speed="15.93" length="3.53" shape="10840.77,3106.83 10841.55,3106.13 10842.12,3105.69 10842.75,3105.35 10843.71,3104.93"/>
    </edge>
    <edge id=":122461149_0" function="internal">
        <lane id=":122461149_0_0" index="0" allow="private emergency authority army vip passenger hov taxi bus coach delivery truck trailer motorcycle evehicle custom1 custom2" speed="22.22" length="3.17" shape="12286.61,1018.79 12287.27,1019.45 12287.74,1019.90 12288.23,1020.31 12288.97,1020.91"/>
    </edge>
    <edge id=":122461149_1" function="internal">
        <lane id=":122461149_1_0" index="0" allow="private emergency authority army vip passenger hov taxi bus coach delivery truck trailer motorcycle evehicle custom1 custom2" speed="22.22" length="3.17" shape="12284.34,1021.05 12286.58,1023.27"/>
        <lane id=":122461149_1_1" index="1" allow="private emergency authority army vip passenger hov taxi bus coach delivery truck trailer motorcycle evehicle custom1 custom2" speed="22.22" length="3.17" shape="12282.07,1023.31 12284.33,1025.56"/>
    </edge>
    <edge id=":122477603_0" function="internal">
        <lane id=":122477603_0_0" index="0" allow="private emergency authority army vip passenger hov taxi bus coach delivery truck trailer motorcycle evehicle custom1 custom2" speed="24.59" length="3.57" shape="12487.45,960.35 12488.12,959.62 12488.88,959.38 12489.63,959.15 12490.31,958.42"/>
        <lane id=":122477603_0_1" index="1" allow="private emergency authority army vip passenger hov taxi bus coach delivery truck trailer motorcycle evehicle custom1 custom2" speed="24.59" length="3.57" shape="12490.26,961.87 12490.94,961.14 12491.69,960.91 12492.45,960.67 12493.12,959.94"/>
        <lane id=":122477603_0_2" index="2" allow="private emergency authority army vip passenger hov taxi bus coach delivery truck trailer motorcycle evehicle custom1 custom2" speed="24.59" length="3.57" shape="12493.08,963.39 12493.75,962.66 12494.51,962.43 12495.26,962.19 12495.94,961.47"/>
        <lane id=":122477603_0_3" index="3" allow="private emergency authority army vip passenger hov taxi bus coach delivery truck trailer motorcycle evehicle custom1 custom2" speed="24.59" length="3.57" shape="12495.89,964.91 12496.57,964.19 12497.32,963.95 12498.07,963.72 12498.75,962.99"/>
    </edge>
    <edge id=":122477603_4" function="internal">
        <lane id=":122477603_4_0" index="0" allow="private emergency authority army vip passenger hov taxi bus coach delivery truck trailer motorcycle evehicle custom1 custom2" speed="23.41" length="3.06" shape="12486.06,959.59 12487.50,956.89"/>
    </edge>
    <edge id=":122504060_0" function="internal">
        <lane id=":122504060_0_0" index="0" allow="private emergency authority army vip passenger hov taxi bus coach delivery truck trailer motorcycle evehicle custom1 custom2" speed="22.22" length="6.94" shape="9566.13,5261.46 9565.20,5259.52 9563.90,5258.43 9562.72,5257.33 9562.17,5255.34"/>
        <lane id=":122504060_0_1" index="1" allow="private emergency authority army vip passenger hov taxi bus coach delivery truck trailer motorcycle evehicle custom1 custom2" speed="22.22" length="6.94" shape="9566.13,5261.46 9565.74,5259.64 9565.53,5258.38 9565.43,5257.11 9565.37,5255.25"/>
        <lane id=":122504060_0_2" index="2" allow="private emergency authority army vip passenger hov taxi bus coach delivery truck trailer motorcycle evehicle custom1 custom2" speed="22.22" length="6.94" shape="9566.13,5261.46 9566.22,5259.56 9567.12,5258.34 9568.13,5257.10 9568.57,5255.15"/>
    </edge>
    <edge id=":122504062_0" function="internal">
        <lane id=":122504062_0_0" index="0" allow="private emergency authority army vip passenger hov taxi bus coach delivery truck trailer motorcycle evehicle custom1 custom2" speed="10.45" length="14.98" shape="9580.71,5184.71 9578.77,5186.42 9577.33,5189.26 9576.37,5193.24 9575.91,5198.34"/>
        <lane id=":122504062_0_1" index="1" allow="private emergency authority army vip passenger hov taxi bus coach delivery truck trailer motorcycle evehicle custom1 custom2" speed="10.94" length="16.48" shape="9580.71,5184.71 9577.35,5187.06 9574.89,5190.09 9573.35,5193.81 9572.71,5198.21"/>
    </edge>
    <edge id=":122504062_2" function="internal">
        <lane id=":122504062_2_0" index="0" disallow="tram rail_urban rail rail_electric rail_fast ship" speed="20.12" length="21.06" shape="9580.71,5184.71 9575.05,5187.19 9570.91,5188.33 9566.83,5189.56 9561.33,5192.31"/>
        <lane id=":122504062_2_1" index="1" disallow="tram rail_urban rail rail_electric rail_fast ship" speed="20.12" length="21.06" shape="9579.22,5181.88 9573.51,5184.38 9569.35,5185.54 9565.23,5186.78 9559.69,5189.57"/>
        <lane id=":122504062_2_2" index="2" disallow="tram rail_urban rail rail_electric rail_fast ship" speed="20.12" length="21.06" shape="9577.73,5179.04 9571.98,5181.58 9567.78,5182.75 9563.64,5184.01 9558.05,5186.82"/>
    </edge>
    <edge id=":122504062_5" function="internal">
        <lane id=":122504062_5_0" index="0" disallow="tram rail_urban rail rail_electric rail_fast ship" speed="3.65" length="1.44" shape="9576.24,5176.21 9574.80,5176.06"/>
    </edge>
    <edge id=":122504062_14" function="internal">
        <lane id=":122504062_14_0" index="0" disallow="tram rail_urban rail rail_electric rail_fast ship" speed="3.65" length="3.23" shape="9574.80,5176.06 9574.08,5175.54 9574.06,5174.65 9574.75,5173.38"/>
    </edge>
    <edge id=":122504062_6" function="internal">
        <lane id=":122504062_6_0" index="0" disallow="tram rail_urban rail rail_electric rail_fast ship" speed="20.12" length="21.40" shape="9553.13,5178.57 9571.77,5167.72"/>
        <lane id=":122504062_6_1" index="1" disallow="tram rail_urban rail rail_electric rail_fast ship" speed="20.12" length="21.40" shape="9554.77,5181.32 9573.26,5170.55"/>
        <lane id=":122504062_6_2" index="2" disallow="tram rail_urban rail rail_electric rail_fast ship" speed="20.12" length="21.40" shape="9556.41,5184.07 9574.75,5173.38"/>
    </edge>
    <edge id=":122504062_9" function="internal">
        <lane id=":122504062_9_0" index="0" disallow="tram rail_urban rail rail_electric rail_fast ship" speed="3.65" length="1.44" shape="9556.41,5184.07 9557.85,5184.14"/>
    </edge>
    <edge id=":122504062_15" function="internal">
        <lane id=":122504062_15_0" index="0" disallow="tram rail_urban rail rail_electric rail_fast ship" speed="3.65" length="3.23" shape="9557.85,5184.14 9558.60,5184.62 9558.67,5185.52 9558.05,5186.82"/>
    </edge>
    <edge id=":122504062_10" function="internal">
        <lane id=":122504062_10_0" index="0" allow="private emergency authority army vip passenger hov taxi bus coach delivery truck trailer motorcycle evehicle custom1 custom2" speed="5.00" length="7.01" shape="9563.46,5197.86 9563.39,5194.91 9563.02,5193.01 9562.33,5192.14 9561.33,5192.31"/>
    </edge>
    <edge id=":122504062_11" function="internal">
        <lane id=":122504062_11_0" index="0" allow="private emergency authority army vip passenger hov taxi bus coach delivery truck trailer motorcycle evehicle custom1 custom2" speed="14.28" length="28.93" shape="9566.65,5197.98 9567.31,5187.15 9568.63,5178.97 9570.61,5173.44 9573.26,5170.55"/>
        <lane id=":122504062_11_1" index="1" allow="private emergency authority army vip passenger hov taxi bus coach delivery truck trailer motorcycle evehicle custom1 custom2" speed="13.47" length="25.68" shape="9569.85,5198.10 9570.39,5188.13 9571.38,5180.69 9572.83,5175.77 9574.75,5173.38"/>
    </edge>
    <edge id=":122504062_13" function="internal">
        <lane id=":122504062_13_0" index="0" allow="private emergency authority army vip passenger hov taxi bus coach delivery truck trailer motorcycle evehicle custom1 custom2" speed="3.52" length="4.18" shape="9569.85,5198.10 9570.61,5197.06 9571.34,5196.73 9572.04,5197.11 9572.71,5198.21"/>
    </edge>
    <edge id=":122786597_0" function="internal">
        <lane id=":122786597_0_0" index="0" disallow="tram rail_urban rail rail_electric rail_fast ship" speed="13.21" length="28.55" shape="9871.37,5116.83 9862.80,5114.67 9855.49,5114.49 9849.44,5116.30 9844.67,5120.08"/>
    </edge>
    <edge id=":122786597_1" function="internal">
        <lane id=":122786597_1_0" index="0" disallow="tram rail_urban rail rail_electric rail_fast ship" speed="16.77" length="43.76" shape="9871.37,5116.83 9859.05,5112.35 9849.30,5108.60 9840.32,5105.57 9830.35,5103.23"/>
        <lane id=":122786597_1_1" index="1" disallow="tram rail_urban rail rail_electric rail_fast ship" speed="16.77" length="43.76" shape="9872.40,5113.80 9860.01,5109.30 9850.10,5105.52 9840.96,5102.44 9830.92,5100.08"/>
        <lane id=":122786597_1_2" index="2" disallow="tram rail_urban rail rail_electric rail_fast ship" speed="16.77" length="43.76" shape="9873.44,5110.78 9860.98,5106.26 9850.90,5102.43 9841.61,5099.31 9831.48,5096.94"/>
    </edge>
    <edge id=":122786597_4" function="internal">
        <lane id=":122786597_4_0" index="0" disallow="tram rail_urban rail rail_electric rail_fast ship" speed="10.00" length="29.03" shape="9874.48,5107.75 9866.64,5104.08 9861.93,5099.36 9861.06,5093.54 9864.73,5086.63"/>
    </edge>
    <edge id=":122786597_5" function="internal">
        <lane id=":122786597_5_0" index="0" disallow="tram rail_urban rail rail_electric rail_fast ship" speed="5.87" length="9.12" shape="9874.59,5094.78 9873.21,5097.04 9873.07,5098.94 9874.19,5100.49 9876.55,5101.69"/>
    </edge>
    <edge id=":122786597_6" function="internal">
        <lane id=":122786597_6_0" index="0" disallow="tram rail_urban rail rail_electric rail_fast ship" speed="27.78" length="38.74" shape="9872.13,5092.74 9863.55,5102.25 9856.23,5109.18 9849.99,5114.72 9844.67,5120.08"/>
        <lane id=":122786597_6_1" index="1" disallow="tram rail_urban rail rail_electric rail_fast ship" speed="27.78" length="38.74" shape="9869.66,5090.71 9861.10,5100.19 9853.80,5107.10 9847.57,5112.63 9842.25,5117.98"/>
    </edge>
    <edge id=":122786597_8" function="internal">
        <lane id=":122786597_8_0" index="0" disallow="tram rail_urban rail rail_electric rail_fast ship" speed="16.41" length="8.17" shape="9867.19,5088.67 9861.00,5093.99"/>
    </edge>
    <edge id=":122786597_17" function="internal">
        <lane id=":122786597_17_0" index="0" disallow="tram rail_urban rail rail_electric rail_fast ship" speed="16.41" length="30.22" shape="9861.00,5093.99 9852.98,5097.14 9843.14,5098.12 9831.48,5096.94"/>
    </edge>
    <edge id=":122786597_9" function="internal">
        <lane id=":122786597_9_0" index="0" disallow="tram rail_urban rail rail_electric rail_fast ship" speed="14.31" length="29.05" shape="9833.76,5084.34 9844.91,5086.05 9853.38,5086.66 9859.16,5086.17 9862.26,5084.59"/>
    </edge>
    <edge id=":122786597_10" function="internal">
        <lane id=":122786597_10_0" index="0" disallow="tram rail_urban rail rail_electric rail_fast ship" speed="16.77" length="45.47" shape="9833.19,5087.49 9846.94,5090.75 9858.70,5094.71 9868.55,5098.61 9876.55,5101.69"/>
        <lane id=":122786597_10_1" index="1" disallow="tram rail_urban rail rail_electric rail_fast ship" speed="16.77" length="45.47" shape="9832.62,5090.64 9846.30,5093.88 9857.90,5097.80 9867.59,5101.65 9875.51,5104.72"/>
    </edge>
    <edge id=":122786597_12" function="internal">
        <lane id=":122786597_12_0" index="0" disallow="tram rail_urban rail rail_electric rail_fast ship" speed="10.22" length="33.59" shape="9832.05,5093.79 9841.05,5097.11 9846.12,5102.72 9846.71,5109.92 9842.25,5117.98"/>
    </edge>
    <edge id=":122786597_13" function="internal">
        <lane id=":122786597_13_0" index="0" disallow="tram rail_urban rail rail_electric rail_fast ship" speed="5.65" length="9.25" shape="9832.58,5109.59 9834.12,5107.26 9834.26,5105.43 9833.00,5104.08 9830.35,5103.23"/>
    </edge>
    <edge id=":122786597_14" function="internal">
        <lane id=":122786597_14_0" index="0" disallow="tram rail_urban rail rail_electric rail_fast ship" speed="27.78" length="38.47" shape="9835.00,5111.69 9862.26,5084.59"/>
        <lane id=":122786597_14_1" index="1" disallow="tram rail_urban rail rail_electric rail_fast ship" speed="27.78" length="38.47" shape="9837.42,5113.78 9864.73,5086.63"/>
    </edge>
    <edge id=":122786597_16" function="internal">
        <lane id=":122786597_16_0" index="0" disallow="tram rail_urban rail rail_electric rail_fast ship" speed="15.55" length="12.43" shape="9839.83,5115.88 9847.93,5108.43 9849.20,5107.79"/>
    </edge>
    <edge id=":122786597_18" function="internal">
        <lane id=":122786597_18_0" index="0" disallow="tram rail_urban rail rail_electric rail_fast ship" speed="15.55" length="27.45" shape="9849.20,5107.79 9856.58,5104.08 9865.77,5102.85 9875.51,5104.72"/>
    </edge>
    <edge id=":124100109-AddedOnRampNode_0" function="internal">
        <lane id=":124100109-AddedOnRampNode_0_0" index="0" allow="private emergency authority army vip passenger hov taxi bus coach delivery truck trailer motorcycle evehicle custom1 custom2" speed="29.06" length="7.98" shape="12178.91,1587.64 12175.12,1594.70"/>
        <lane id=":124100109-AddedOnRampNode_0_1" index="1" allow="private emergency authority army vip passenger hov taxi bus coach delivery truck trailer motorcycle evehicle custom1 custom2" speed="29.06" length="7.98" shape="12176.12,1586.07 12172.34,1593.11"/>
        <lane id=":124100109-AddedOnRampNode_0_2" index="2" allow="private emergency authority army vip passenger hov taxi bus coach delivery truck trailer motorcycle evehicle custom1 custom2" speed="29.06" length="7.98" shape="12173.33,1584.50 12169.56,1591.52"/>
        <lane id=":124100109-AddedOnRampNode_0_3" index="3" allow="private emergency authority army vip passenger hov taxi bus coach delivery truck trailer motorcycle evehicle custom1 custom2" speed="29.06" length="7.98" shape="12170.54,1582.93 12166.78,1589.93"/>
    </edge>
    <edge id=":124100112#0-AddedOnRampNode_0" function="internal">
        <lane id=":124100112#0-AddedOnRampNode_0_0" index="0" allow="private emergency authority army vip passenger hov taxi bus coach delivery truck trailer motorcycle evehicle custom1 custom2" speed="24.59" length="8.00" shape="12535.32,875.32 12539.13,868.29"/>
        <lane id=":124100112#0-AddedOnRampNode_0_1" index="1" allow="private emergency authority army vip passenger hov taxi bus coach delivery truck trailer motorcycle evehicle custom1 custom2" speed="24.59" length="8.00" shape="12538.14,876.85 12541.95,869.81"/>
        <lane id=":124100112#0-AddedOnRampNode_0_2" index="2" allow="private emergency authority army vip passenger hov taxi bus coach delivery truck trailer motorcycle evehicle custom1 custom2" speed="24.59" length="8.00" shape="12540.95,878.37 12544.76,871.34"/>
        <lane id=":124100112#0-AddedOnRampNode_0_3" index="3" allow="private emergency authority army vip passenger hov taxi bus coach delivery truck trailer motorcycle evehicle custom1 custom2" speed="24.59" length="8.00" shape="12543.76,879.89 12547.57,872.86"/>
    </edge>
    <edge id=":139639768-AddedOffRampNode_0" function="internal">
        <lane id=":139639768-AddedOffRampNode_0_0" index="0" allow="private emergency authority army vip passenger hov taxi bus coach delivery truck trailer motorcycle evehicle custom1 custom2" speed="22.22" length="8.87" shape="10803.41,3247.83 10804.14,3245.19 10803.02,3242.96 10801.81,3240.68 10802.29,3237.86"/>
        <lane id=":139639768-AddedOffRampNode_0_1" index="1" allow="private emergency authority army vip passenger hov taxi bus coach delivery truck trailer motorcycle evehicle custom1 custom2" speed="22.22" length="8.87" shape="10803.41,3247.83 10804.44,3245.60 10804.38,3243.75 10804.24,3241.86 10805.05,3239.48"/>
        <lane id=":139639768-AddedOffRampNode_0_2" index="2" allow="private emergency authority army vip passenger hov taxi bus coach delivery truck trailer motorcycle evehicle custom1 custom2" speed="22.22" length="8.87" shape="10803.41,3247.83 10804.82,3245.91 10805.75,3244.56 10806.60,3243.16 10807.81,3241.10"/>
        <lane id=":139639768-AddedOffRampNode_0_3" index="3" allow="private emergency authority army vip passenger hov taxi bus coach delivery truck trailer motorcycle evehicle custom1 custom2" speed="22.22" length="8.87" shape="10806.18,3249.47 10807.59,3247.54 10808.51,3246.19 10809.36,3244.79 10810.57,3242.72"/>
    </edge>
    <edge id=":1480735257_0" function="internal">
        <lane id=":1480735257_0_0" index="0" disallow="tram rail_urban rail rail_electric rail_fast ship" speed="3.65" length="4.67" shape="9557.88,5186.92 9556.43,5186.85 9555.68,5186.37 9555.62,5185.47 9556.24,5184.17"/>
    </edge>
    <edge id=":1530583651_0" function="internal">
        <lane id=":1530583651_0_0" index="0" allow="private emergency authority army vip passenger hov taxi bus coach delivery truck trailer motorcycle evehicle custom1 custom2" speed="25.64" length="3.47" shape="8533.66,6542.83 8535.84,6540.13"/>
    </edge>
    <edge id=":1530583651_1" function="internal">
        <lane id=":1530583651_1_0" index="0" allow="private emergency authority army vip passenger hov taxi bus coach delivery truck trailer motorcycle evehicle custom1 custom2" speed="29.06" length="3.20" shape="8536.19,6544.79 8538.26,6542.14"/>
        <lane id=":1530583651_1_1" index="1" allow="private emergency authority army vip passenger hov taxi bus coach delivery truck trailer motorcycle evehicle custom1 custom2" speed="29.06" length="3.20" shape="8538.71,6546.76 8540.71,6544.19"/>
        <lane id=":1530583651_1_2" index="2" allow="private emergency authority army vip passenger hov taxi bus coach delivery truck trailer motorcycle evehicle custom1 custom2" speed="29.06" length="3.20" shape="8541.24,6548.72 8543.17,6546.24"/>
        <lane id=":1530583651_1_3" index="3" allow="private emergency authority army vip passenger hov taxi bus coach delivery truck trailer motorcycle evehicle custom1 custom2" speed="29.06" length="3.20" shape="8543.76,6550.69 8545.63,6548.29"/>
    </edge>
    <edge id=":1530583652_0" function="internal">
        <lane id=":1530583652_0_0" index="0" allow="private emergency authority army vip passenger hov taxi bus coach delivery truck trailer motorcycle evehicle custom1 custom2" speed="25.64" length="3.00" shape="8662.08,6437.94 8660.15,6440.24"/>
    </edge>
    <edge id=":1530583652_1" function="internal">
        <lane id=":1530583652_1_0" index="0" allow="private emergency authority army vip passenger hov taxi bus coach delivery truck trailer motorcycle evehicle custom1 custom2" speed="29.06" length="3.00" shape="8659.47,6435.91 8657.62,6438.27"/>
        <lane id=":1530583652_1_1" index="1" allow="private emergency authority army vip passenger hov taxi bus coach delivery truck trailer motorcycle evehicle custom1 custom2" speed="29.06" length="3.00" shape="8656.95,6433.94 8655.10,6436.30"/>
        <lane id=":1530583652_1_2" index="2" allow="private emergency authority army vip passenger hov taxi bus coach delivery truck trailer motorcycle evehicle custom1 custom2" speed="29.06" length="3.00" shape="8654.42,6431.97 8652.58,6434.33"/>
        <lane id=":1530583652_1_3" index="3" allow="private emergency authority army vip passenger hov taxi bus coach delivery truck trailer motorcycle evehicle custom1 custom2" speed="29.06" length="3.00" shape="8651.90,6430.00 8650.05,6432.37"/>
    </edge>
    <edge id=":1530583657_0" function="internal">
        <lane id=":1530583657_0_0" index="0" allow="private emergency authority army vip passenger hov taxi bus coach delivery truck trailer motorcycle evehicle custom1 custom2" speed="25.64" length="3.00" shape="9001.78,6072.55 9003.69,6070.23"/>
    </edge>
    <edge id=":1530583657_1" function="internal">
        <lane id=":1530583657_1_0" index="0" allow="private emergency authority army vip passenger hov taxi bus coach delivery truck trailer motorcycle evehicle custom1 custom2" speed="29.06" length="3.00" shape="9004.26,6074.58 9006.17,6072.26"/>
        <lane id=":1530583657_1_1" index="1" allow="private emergency authority army vip passenger hov taxi bus coach delivery truck trailer motorcycle evehicle custom1 custom2" speed="29.06" length="3.00" shape="9006.74,6076.61 9008.64,6074.29"/>
        <lane id=":1530583657_1_2" index="2" allow="private emergency authority army vip passenger hov taxi bus coach delivery truck trailer motorcycle evehicle custom1 custom2" speed="29.06" length="3.00" shape="9009.22,6078.64 9011.12,6076.32"/>
        <lane id=":1530583657_1_3" index="3" allow="private emergency authority army vip passenger hov taxi bus coach delivery truck trailer motorcycle evehicle custom1 custom2" speed="29.06" length="3.00" shape="9011.69,6080.66 9013.59,6078.34"/>
    </edge>
    <edge id=":1530583694_0" function="internal">
        <lane id=":1530583694_0_0" index="0" allow="private emergency authority army vip passenger hov taxi bus coach delivery truck trailer motorcycle evehicle custom1 custom2" speed="29.06" length="3.21" shape="10415.34,3619.31 10417.72,3617.21"/>
        <lane id=":1530583694_0_1" index="1" allow="private emergency authority army vip passenger hov taxi bus coach delivery truck trailer motorcycle evehicle custom1 custom2" speed="29.06" length="3.21" shape="10417.45,3621.72 10419.84,3619.60"/>
        <lane id=":1530583694_0_2" index="2" allow="private emergency authority army vip passenger hov taxi bus coach delivery truck trailer motorcycle evehicle custom1 custom2" speed="29.06" length="3.21" shape="10419.56,3624.13 10421.97,3622.00"/>
        <lane id=":1530583694_0_3" index="3" allow="private emergency authority army vip passenger hov taxi bus coach delivery truck trailer motorcycle evehicle custom1 custom2" speed="29.06" length="3.21" shape="10421.66,3626.54 10424.09,3624.39"/>
    </edge>
    <edge id=":1530583694_4" function="internal">
        <lane id=":1530583694_4_0" index="0" allow="private emergency authority army vip passenger hov taxi bus coach delivery truck trailer motorcycle evehicle custom1 custom2" speed="25.64" length="3.15" shape="10413.26,3616.94 10415.59,3614.82"/>
    </edge>
    <edge id=":1530583702_0" function="internal">
        <lane id=":1530583702_0_0" index="0" allow="private emergency authority army vip passenger hov taxi bus coach delivery truck trailer motorcycle evehicle custom1 custom2" speed="8.70" length="2.78" shape="9863.39,4945.88 9863.07,4946.64 9862.82,4947.15 9862.47,4947.60 9861.86,4948.14"/>
    </edge>
    <edge id=":1530583702_1" function="internal">
        <lane id=":1530583702_1_0" index="0" allow="private emergency authority army vip passenger hov taxi bus coach delivery truck trailer motorcycle evehicle custom1 custom2" speed="29.06" length="3.18" shape="9860.46,4944.60 9859.10,4947.62"/>
        <lane id=":1530583702_1_1" index="1" allow="private emergency authority army vip passenger hov taxi bus coach delivery truck trailer motorcycle evehicle custom1 custom2" speed="29.06" length="3.18" shape="9857.52,4943.33 9856.20,4946.27"/>