<?xml version="1.0" encoding="UTF-8"?>

<!-- generated on 2022-01-06 17:12:02 by Eclipse SUMO netedit Version v1_10_0+2390-e1c4ea0d0d5
<configuration xmlns:xsi="http://www.w3.org/2001/XMLSchema-instance" xsi:noNamespaceSchemaLocation="http://sumo.dlr.de/xsd/netconvertConfiguration.xsd">

    <input>
        <sumo-net-file value="/home/tjzhang/Sumo/highway/highway.net.xml"/>
    </input>

    <output>
        <output-file value="/home/tjzhang/Sumo/highway/highway.net.xml"/>
    </output>

    <processing>
        <geometry.min-radius.fix.railways value="false"/>
        <geometry.max-grade.fix value="false"/>
        <offset.disable-normalization value="true"/>
        <lefthand value="false"/>
    </processing>

    <junctions>
        <no-turnarounds value="true"/>
        <junctions.corner-detail value="5"/>
        <junctions.limit-turn-speed value="5.5"/>
        <rectangular-lane-cut value="false"/>
    </junctions>

    <pedestrian>
        <walkingareas value="false"/>
    </pedestrian>

    <report>
        <aggregate-warnings value="5"/>
    </report>

</configuration>
-->

<net version="1.9" junctionCornerDetail="5" limitTurnSpeed="5.50" xmlns:xsi="http://www.w3.org/2001/XMLSchema-instance" xsi:noNamespaceSchemaLocation="http://sumo.dlr.de/xsd/net_file.xsd">

    <location netOffset="0.00,0.00" convBoundary="0.00,-50.00,300.00,0.00" origBoundary="-10000000000.00,-10000000000.00,10000000000.00,10000000000.00" projParameter="!"/>

    <edge id=":J1_0" function="internal">
        <lane id=":J1_0_0" index="0" speed="13.12" length="9.04" shape="89.33,-8.55 91.53,-6.98 93.06,-5.80 94.72,-5.06 97.30,-4.80"/>
    </edge>
    <edge id=":J1_1" function="internal">
        <lane id=":J1_1_0" index="0" speed="60.00" length="9.04" shape="88.26,-4.80 97.30,-4.80"/>
        <lane id=":J1_1_1" index="1" speed="60.00" length="9.04" shape="88.26,-1.60 97.30,-1.60"/>
    </edge>
    <edge id=":J2_0" function="internal">
        <lane id=":J2_0_0" index="0" speed="13.11" length="9.04" shape="202.70,-4.80 205.28,-5.06 206.93,-5.80 208.46,-6.98 210.66,-8.55"/>
    </edge>
    <edge id=":J2_1" function="internal">
        <lane id=":J2_1_0" index="0" speed="60.00" length="9.04" shape="202.70,-4.80 211.74,-4.80"/>
        <lane id=":J2_1_1" index="1" speed="60.00" length="9.04" shape="202.70,-1.60 211.74,-1.60"/>
    </edge>
    <edge id=":rampMeter_0" function="internal">
        <lane id=":rampMeter_0_0" index="0" speed="26.95" length="0.10" shape="75.13,-17.43 75.13,-17.43"/>
    </edge>

    <edge id="hwyEnd" from="J2" to="J3" priority="-1">
        <lane id="hwyEnd_0" index="0" speed="60.00" length="88.26" shape="211.74,-4.80 300.00,-4.80"/>
        <lane id="hwyEnd_1" index="1" speed="60.00" length="88.26" shape="211.74,-1.60 300.00,-1.60"/>
    </edge>
    <edge id="hwyMid" from="J1" to="J2" priority="-1">
        <lane id="hwyMid_0" index="0" speed="60.00" length="105.41" shape="97.30,-4.80 202.70,-4.80"/>
        <lane id="hwyMid_1" index="1" speed="60.00" length="105.41" shape="97.30,-1.60 202.70,-1.60"/>
    </edge>
    <edge id="hwyStart" from="J0" to="J1" priority="-1">
        <lane id="hwyStart_0" index="0" speed="60.00" length="88.26" shape="0.00,-4.80 88.26,-4.80"/>
        <lane id="hwyStart_1" index="1" speed="60.00" length="88.26" shape="0.00,-1.60 88.26,-1.60"/>
    </edge>
    <edge id="offRamp" from="J2" to="J5" priority="-1">
        <lane id="offRamp_0" index="0" speed="40.00" length="80.76" shape="210.66,-8.55 279.15,-51.36"/>
    </edge>
    <edge id="onRamp" from="J4" to="rampMeter" priority="-1">
        <lane id="onRamp_0" index="0" speed="40.00" length="64.01" shape="20.85,-51.36 75.13,-17.43"/>
    </edge>
    <edge id="onRampMerge" from="rampMeter" to="J1" priority="-1">
        <lane id="onRampMerge_0" index="0" speed="13.89" length="16.75" shape="75.13,-17.43 89.33,-8.55"/>
    </edge>

    <tlLogic id="rampMeter" type="static" programID="0" offset="0">
        <phase duration="82" state="G"/>
        <phase duration="3"  state="y"/>
        <phase duration="5"  state="r"/>
    </tlLogic>

    <junction id="J0" type="dead_end" x="0.00" y="0.00" incLanes="" intLanes="" shape="0.00,0.00 0.00,-6.40"/>
    <junction id="J1" type="priority" x="100.00" y="0.00" incLanes="onRampMerge_0 hwyStart_0 hwyStart_1" intLanes=":J1_0_0 :J1_1_0 :J1_1_1" shape="97.30,0.00 97.30,-6.40 94.44,-6.84 93.51,-7.37 92.64,-8.06 91.60,-8.92 90.18,-9.91 88.48,-7.19 88.26,-6.40 88.26,0.00">
        <request index="0" response="110" foes="110" cont="0"/>
        <request index="1" response="000" foes="001" cont="0"/>
        <request index="2" response="000" foes="001" cont="0"/>
    </junction>
    <junction id="J2" type="priority" x="200.00" y="0.00" incLanes="hwyMid_0 hwyMid_1" intLanes=":J2_0_0 :J2_1_0 :J2_1_1" shape="211.74,0.00 211.74,-6.40 211.51,-7.19 209.82,-9.91 207.36,-8.06 206.49,-7.37 205.56,-6.84 204.37,-6.51 202.70,-6.40 202.70,0.00">
        <request index="0" response="000" foes="000" cont="0"/>
        <request index="1" response="000" foes="000" cont="0"/>
        <request index="2" response="000" foes="000" cont="0"/>
    </junction>
    <junction id="J3" type="dead_end" x="300.00" y="0.00" incLanes="hwyEnd_0 hwyEnd_1" intLanes="" shape="300.00,-6.40 300.00,0.00"/>
    <junction id="J4" type="dead_end" x="20.00" y="-50.00" incLanes="" intLanes="" shape="20.00,-50.00 21.70,-52.71"/>
    <junction id="J5" type="dead_end" x="280.00" y="-50.00" incLanes="offRamp_0" intLanes="" shape="278.30,-52.71 280.00,-50.00"/>
    <junction id="rampMeter" type="traffic_light_unregulated" x="74.28" y="-16.07" incLanes="onRamp_0" intLanes=":rampMeter_0_0" shape="74.28,-16.07 75.98,-18.78 74.28,-16.07"/>

    <connection from="hwyMid" to="offRamp" fromLane="0" toLane="0" via=":J2_0_0" dir="R" state="M"/>
    <connection from="hwyMid" to="hwyEnd" fromLane="0" toLane="0" via=":J2_1_0" dir="s" state="M"/>
    <connection from="hwyMid" to="hwyEnd" fromLane="1" toLane="1" via=":J2_1_1" dir="s" state="M"/>
    <connection from="hwyStart" to="hwyMid" fromLane="0" toLane="0" via=":J1_1_0" dir="s" state="M"/>
    <connection from="hwyStart" to="hwyMid" fromLane="1" toLane="1" via=":J1_1_1" dir="s" state="M"/>
    <connection from="onRamp" to="onRampMerge" fromLane="0" toLane="0" via=":rampMeter_0_0" tl="rampMeter" linkIndex="0" dir="s" state="O"/>
    <connection from="onRampMerge" to="hwyMid" fromLane="0" toLane="0" via=":J1_0_0" dir="s" state="m"/>

    <connection from=":J1_0" to="hwyMid" fromLane="0" toLane="0" dir="s" state="M"/>
    <connection from=":J1_1" to="hwyMid" fromLane="0" toLane="0" dir="s" state="M"/>
    <connection from=":J1_1" to="hwyMid" fromLane="1" toLane="1" dir="s" state="M"/>
    <connection from=":J2_0" to="offRamp" fromLane="0" toLane="0" dir="R" state="M"/>
    <connection from=":J2_1" to="hwyEnd" fromLane="0" toLane="0" dir="s" state="M"/>
    <connection from=":J2_1" to="hwyEnd" fromLane="1" toLane="1" dir="s" state="M"/>
    <connection from=":rampMeter_0" to="onRampMerge" fromLane="0" toLane="0" dir="s" state="M"/>

</net>
