<?xml version="1.0" encoding="UTF-8"?>

<!-- generated on 2022-01-12 19:01:23 by Eclipse SUMO GUI Version v1_10_0+2390-e1c4ea0d0d5
-->

<configuration xmlns:xsi="http://www.w3.org/2001/XMLSchema-instance" xsi:noNamespaceSchemaLocation="http://sumo.dlr.de/xsd/sumoConfiguration.xsd">

    <input>
        <net-file value="highway.net.xml"/>
        <route-files value="highway.rou.xml"/>
        <additional-files value="highway.add.xml"/>
    </input>

</configuration>
