<?xml version="1.0" encoding="UTF-8"?>

<!-- generated on 2022-02-15 20:31:37 by Eclipse SUMO netedit Version v1_10_0+2390-e1c4ea0d0d5
<configuration xmlns:xsi="http://www.w3.org/2001/XMLSchema-instance" xsi:noNamespaceSchemaLocation="http://sumo.dlr.de/xsd/netconvertConfiguration.xsd">

    <input>
        <sumo-net-file value="/home/tjzhang/Sumo/highway/sumoProj/highway.net.xml"/>
    </input>

    <output>
        <output-file value="/home/tjzhang/Sumo/highway/sumoProj/highway.net.xml"/>
    </output>

    <processing>
        <geometry.min-radius.fix.railways value="false"/>
        <geometry.max-grade.fix value="false"/>
        <offset.disable-normalization value="true"/>
        <lefthand value="false"/>
    </processing>

    <junctions>
        <no-turnarounds value="true"/>
        <junctions.corner-detail value="5"/>
        <junctions.limit-turn-speed value="5.5"/>
        <rectangular-lane-cut value="false"/>
    </junctions>

    <pedestrian>
        <walkingareas value="false"/>
    </pedestrian>

    <report>
        <aggregate-warnings value="5"/>
    </report>

</configuration>
-->

<net version="1.9" junctionCornerDetail="5" limitTurnSpeed="5.50" xmlns:xsi="http://www.w3.org/2001/XMLSchema-instance" xsi:noNamespaceSchemaLocation="http://sumo.dlr.de/xsd/net_file.xsd">

    <location netOffset="0.00,0.00" convBoundary="0.00,-50.00,300.00,0.00" origBoundary="-10000000000.00,-10000000000.00,10000000000.00,10000000000.00" projParameter="!"/>

    <edge id=":J1_0" function="internal">
        <lane id=":J1_0_0" index="0" speed="8.71" length="3.85" shape="88.55,-9.04 89.53,-8.45 90.26,-8.14 91.04,-8.02 92.17,-8.00"/>
    </edge>
    <edge id=":J1_1" function="internal">
        <lane id=":J1_1_0" index="0" speed="60.00" length="3.92" shape="88.26,-4.80 92.17,-4.80"/>
        <lane id=":J1_1_1" index="1" speed="60.00" length="3.92" shape="88.26,-1.60 92.17,-1.60"/>
    </edge>
    <edge id=":J2_0" function="internal">
        <lane id=":J2_0_0" index="0" speed="8.71" length="3.85" shape="207.82,-8.00 208.96,-8.02 209.74,-8.14 210.47,-8.45 211.44,-9.04"/>
    </edge>
    <edge id=":J2_1" function="internal">
        <lane id=":J2_1_0" index="0" speed="60.00" length="3.92" shape="207.82,-4.80 211.74,-4.80"/>
        <lane id=":J2_1_1" index="1" speed="60.00" length="3.92" shape="207.82,-1.60 211.74,-1.60"/>
    </edge>
    <edge id=":rampMeter_0" function="internal">
        <lane id=":rampMeter_0_0" index="0" speed="26.95" length="0.10" shape="75.13,-17.43 75.13,-17.43"/>
    </edge>

    <edge id="hwyEnd" from="J2" to="J3" priority="-1">
        <lane id="hwyEnd_0" index="0" speed="60.00" length="88.26" shape="211.74,-4.80 300.00,-4.80"/>
        <lane id="hwyEnd_1" index="1" speed="60.00" length="88.26" shape="211.74,-1.60 300.00,-1.60"/>
    </edge>
    <edge id="hwyMid" from="J1" to="J2" priority="-1">
        <lane id="hwyMid_0" index="0" speed="60.00" length="115.65" acceleration="1" shape="92.17,-8.00 207.82,-8.00"/>
        <lane id="hwyMid_1" index="1" speed="60.00" length="115.65" shape="92.17,-4.80 207.82,-4.80"/>
        <lane id="hwyMid_2" index="2" speed="60.00" length="115.65" shape="92.17,-1.60 207.82,-1.60"/>
    </edge>
    <edge id="hwyStart" from="J0" to="J1" priority="-1">
        <lane id="hwyStart_0" index="0" speed="60.00" length="88.26" shape="0.00,-4.80 88.26,-4.80"/>
        <lane id="hwyStart_1" index="1" speed="60.00" length="88.26" shape="0.00,-1.60 88.26,-1.60"/>
    </edge>
    <edge id="offRamp" from="J2" to="J5" priority="-1">
        <lane id="offRamp_0" index="0" speed="40.00" length="79.85" shape="211.44,-9.04 279.15,-51.36"/>
    </edge>
    <edge id="onRamp" from="J4" to="rampMeter" priority="-1">
        <lane id="onRamp_0" index="0" speed="40.00" length="64.01" shape="20.85,-51.36 75.13,-17.43"/>
    </edge>
    <edge id="onRampMerge" from="rampMeter" to="J1" priority="-1">
        <lane id="onRampMerge_0" index="0" speed="13.89" length="15.83" shape="75.13,-17.43 88.55,-9.04"/>
    </edge>

    <tlLogic id="rampMeter" type="static" programID="0" offset="0">
        <phase duration="82" state="G"/>
        <phase duration="3"  state="y"/>
        <phase duration="5"  state="r"/>
    </tlLogic>
    <tlLogic id="rampMeter" type="actuated" programID="my_program" offset="0">
        <phase duration="31" state="g" minDur="5" maxDur="45"/>
        <phase duration="10" state="r" minDur="10" maxDur="10"/>
        <param key="detector-gap" value="2.0"/>
        <param key="file" value="NULL"/>
        <param key="freq" value="300"/>
        <param key="max-gap" value="3.0"/>
        <param key="passing-time" value="2.0"/>
        <param key="show-detectors" value="true"/>
        <param key="vTypes" value=""/>
    </tlLogic>

    <junction id="J0" type="dead_end" x="0.00" y="0.00" incLanes="" intLanes="" shape="0.00,0.00 0.00,-6.40"/>
    <junction id="J1" type="priority" x="100.00" y="0.00" incLanes="onRampMerge_0 hwyStart_0 hwyStart_1" intLanes=":J1_0_0 :J1_1_0 :J1_1_1" shape="92.17,0.00 92.17,-9.60 91.09,-9.64 90.71,-9.71 90.34,-9.85 89.93,-10.07 89.40,-10.39 87.71,-7.68 88.68,-6.97 88.87,-6.72 88.86,-6.54 88.66,-6.44 88.26,-6.40 88.26,0.00">
        <request index="0" response="000" foes="000" cont="0"/>
        <request index="1" response="000" foes="000" cont="0"/>
        <request index="2" response="000" foes="000" cont="0"/>
    </junction>
    <junction id="J2" type="priority" x="200.00" y="0.00" incLanes="hwyMid_0 hwyMid_1 hwyMid_2" intLanes=":J2_0_0 :J2_1_0 :J2_1_1" shape="211.74,0.00 211.74,-6.40 211.13,-6.54 211.13,-6.72 211.32,-6.97 211.71,-7.29 212.29,-7.68 210.59,-10.39 209.65,-9.85 209.29,-9.71 208.91,-9.64 208.44,-9.61 207.82,-9.60 207.82,0.00">
        <request index="0" response="000" foes="000" cont="0"/>
        <request index="1" response="000" foes="000" cont="0"/>
        <request index="2" response="000" foes="000" cont="0"/>
    </junction>
    <junction id="J3" type="dead_end" x="300.00" y="0.00" incLanes="hwyEnd_0 hwyEnd_1" intLanes="" shape="300.00,-6.40 300.00,0.00"/>
    <junction id="J4" type="dead_end" x="20.00" y="-50.00" incLanes="" intLanes="" shape="20.00,-50.00 21.70,-52.71"/>
    <junction id="J5" type="dead_end" x="280.00" y="-50.00" incLanes="offRamp_0" intLanes="" shape="278.30,-52.71 280.00,-50.00"/>
    <junction id="rampMeter" type="traffic_light" x="74.28" y="-16.07" incLanes="onRamp_0" intLanes=":rampMeter_0_0" shape="74.28,-16.07 75.98,-18.78 74.28,-16.07">
        <request index="0" response="0" foes="0" cont="0"/>
    </junction>

    <connection from="hwyMid" to="offRamp" fromLane="0" toLane="0" via=":J2_0_0" dir="R" state="M"/>
    <connection from="hwyMid" to="hwyEnd" fromLane="1" toLane="0" via=":J2_1_0" dir="s" state="M"/>
    <connection from="hwyMid" to="hwyEnd" fromLane="2" toLane="1" via=":J2_1_1" dir="s" state="M"/>
    <connection from="hwyStart" to="hwyMid" fromLane="0" toLane="1" via=":J1_1_0" dir="s" state="M"/>
    <connection from="hwyStart" to="hwyMid" fromLane="1" toLane="2" via=":J1_1_1" dir="s" state="M"/>
    <connection from="onRamp" to="onRampMerge" fromLane="0" toLane="0" via=":rampMeter_0_0" tl="rampMeter" linkIndex="0" dir="s" state="O"/>
    <connection from="onRampMerge" to="hwyMid" fromLane="0" toLane="0" via=":J1_0_0" dir="s" state="M"/>

    <connection from=":J1_0" to="hwyMid" fromLane="0" toLane="0" dir="s" state="M"/>
    <connection from=":J1_1" to="hwyMid" fromLane="0" toLane="1" dir="s" state="M"/>
    <connection from=":J1_1" to="hwyMid" fromLane="1" toLane="2" dir="s" state="M"/>
    <connection from=":J2_0" to="offRamp" fromLane="0" toLane="0" dir="R" state="M"/>
    <connection from=":J2_1" to="hwyEnd" fromLane="0" toLane="0" dir="s" state="M"/>
    <connection from=":J2_1" to="hwyEnd" fromLane="1" toLane="1" dir="s" state="M"/>
    <connection from=":rampMeter_0" to="onRampMerge" fromLane="0" toLane="0" dir="s" state="M"/>

</net>
