<?xml version="1.0" encoding="UTF-8"?>

<!-- generated on 2022-02-13 17:27:12 by Eclipse SUMO polyconvert Version v1_10_0+2390-e1c4ea0d0d5
<configuration xmlns:xsi="http://www.w3.org/2001/XMLSchema-instance" xsi:noNamespaceSchemaLocation="http://sumo.dlr.de/xsd/polyconvertConfiguration.xsd">

    <input>
        <xml-files value="highway.net.xml"/>
    </input>

    <output>
        <output-file value="highway.poly.xml"/>
    </output>

    <projection>
        <proj.scale value="1"/>
    </projection>

</configuration>
-->

<additional xmlns:xsi="http://www.w3.org/2001/XMLSchema-instance" xsi:noNamespaceSchemaLocation="http://sumo.dlr.de/xsd/additional_file.xsd">
</additional>
