<?xml version="1.0" encoding="UTF-8"?>

<!-- generated on 2022-12-30 11:03:53 by Eclipse SUMO netedit Version 1.15.0
-->

<additional xmlns:xsi="http://www.w3.org/2001/XMLSchema-instance" xsi:noNamespaceSchemaLocation="http://sumo.dlr.de/xsd/additional_file.xsd">
    <!-- Detectors -->
    <inductionLoop id="e1_DOWNEY_on_ramp_0" lane="source_DOWNEY_0" pos="72.06" period="300.00" file="e1_DOWNEY_on_ramp_0.xml"/>
    <inductionLoop id="e1_DOWNEY_upstream_0" lane="ne9_864961753_0" pos="40.03" period="300.00" file="e1_DOWNEY_upstream_0.xml"/>
    <inductionLoop id="e1_DOWNEY_upstream_1" lane="ne9_864961753_1" pos="40.49" period="300.00" file="e1_DOWNEY_upstream_1.xml"/>
    <inductionLoop id="e1_DOWNEY_upstream_2" lane="ne9_864961753_2" pos="40.47" period="300.00" file="e1_DOWNEY_upstream_2.xml"/>
    <inductionLoop id="e1_DOWNEY_upstream_3" lane="ne9_864961753_3" pos="41.19" period="300.00" file="e1_DOWNEY_upstream_3.xml"/>
    <inductionLoop id="e1_DOWNEY_upstream_4" lane="ne9_864961753_4" pos="42.38" period="300.00" file="e1_DOWNEY_upstream_4.xml"/>
    <inductionLoop id="e1_LAKEWOOD_NB_on_ramp_0" lane="source_NB_LAKEWOOD_0" pos="115.74" period="300.00" file="e1_LAKEWOOD_NB_on_ramp_0.xml"/>
    <inductionLoop id="e1_LAKEWOOD_NB_on_ramp_1" lane="source_NB_LAKEWOOD_1" pos="116.38" period="300.00" file="e1_LAKEWOOD_NB_on_ramp_1.xml"/>
    <inductionLoop id="e1_LAKEWOOD_NB_upstream_0" lane="ne2_32296080_0" pos="104.91" period="300.00" file="e1_LAKEWOOD_NB_upstream_0.xml"/>
    <inductionLoop id="e1_LAKEWOOD_NB_upstream_1" lane="ne2_32296080_1" pos="105.22" period="300.00" file="e1_LAKEWOOD_NB_upstream_1.xml"/>
    <inductionLoop id="e1_LAKEWOOD_NB_upstream_2" lane="ne2_32296080_2" pos="104.92" period="300.00" file="e1_LAKEWOOD_NB_upstream_2.xml"/>
    <inductionLoop id="e1_LAKEWOOD_NB_upstream_3" lane="ne2_32296080_3" pos="105.35" period="300.00" file="e1_LAKEWOOD_NB_upstream_3.xml"/>
    <inductionLoop id="e1_LAKEWOOD_SB_on_ramp_0" lane="23426514_0" pos="47.93" period="300.00" file="e1_LAKEWOOD_SB_on_ramp_0.xml"/>
    <inductionLoop id="e1_LAKEWOOD_SB_on_ramp_1" lane="23426514_1" pos="49.14" period="300.00" file="e1_LAKEWOOD_SB_on_ramp_1.xml"/>
    <inductionLoop id="e1_LAKEWOOD_SB_upstream_0" lane="ne2_866210533_0" pos="13.98" period="300.00" file="e1_LAKEWOOD_SB_upstream_0.xml"/>
    <inductionLoop id="e1_LAKEWOOD_SB_upstream_1" lane="ne2_866210533_1" pos="14.07" period="300.00" file="e1_LAKEWOOD_SB_upstream_1.xml"/>
    <inductionLoop id="e1_LAKEWOOD_SB_upstream_2" lane="ne2_866210533_2" pos="14.58" period="300.00" file="e1_LAKEWOOD_SB_upstream_2.xml"/>
    <inductionLoop id="e1_LAKEWOOD_SB_upstream_3" lane="ne2_866210533_3" pos="14.64" period="300.00" file="e1_LAKEWOOD_SB_upstream_3.xml"/>
    <inductionLoop id="e1_PARAMOUNT_on_ramp_0" lane="source_PARAMOUNT_BLVD_0" pos="51.78" period="300.00" file="e1_PARAMOUNT_on_ramp_0.xml"/>
    <inductionLoop id="e1_PARAMOUNT_on_ramp_1" lane="source_PARAMOUNT_BLVD_1" pos="51.65" period="300.00" file="e1_PARAMOUNT_on_ramp_1.xml"/>
    <inductionLoop id="e1_PARAMOUNT_upstream_0" lane="ne3_32296182#1_0" pos="70.02" period="300.00" file="e1_PARAMOUNT_upstream_0.xml"/>
    <inductionLoop id="e1_PARAMOUNT_upstream_1" lane="ne3_32296182#1_1" pos="70.24" period="300.00" file="e1_PARAMOUNT_upstream_1.xml"/>
    <inductionLoop id="e1_PARAMOUNT_upstream_2" lane="ne3_32296182#1_2" pos="70.92" period="300.00" file="e1_PARAMOUNT_upstream_2.xml"/>
    <inductionLoop id="e1_PARAMOUNT_upstream_3" lane="ne3_32296182#1_3" pos="71.07" period="300.00" file="e1_PARAMOUNT_upstream_3.xml"/>
    <laneAreaDetector id="e2_ATLANTIC_TRIGGS_enter_0" lanes="385595003.73_0 ne8_975003948-AddedOnRampEdge_0" pos="0.00" endPos="94.00" period="300.00" file="e2_ATLANTIC_TRIGGS_enter_0.xml"/>
    <laneAreaDetector id="e2_ATLANTIC_TRIGGS_enter_1" lanes="ne8_864952781_0 ne8_975003948-AddedOnRampEdge_1" pos="141.25" endPos="94.00" period="300.00" file="e2_ATLANTIC_TRIGGS_enter_1.xml"/>
    <laneAreaDetector id="e2_ATLANTIC_TRIGGS_enter_2" lanes="ne8_864952781_1 ne8_975003948-AddedOnRampEdge_2" pos="141.25" endPos="94.00" period="300.00" file="e2_ATLANTIC_TRIGGS_enter_2.xml"/>
    <laneAreaDetector id="e2_ATLANTIC_TRIGGS_enter_3" lanes="ne8_864952781_2 ne8_975003948-AddedOnRampEdge_3" pos="141.25" endPos="94.00" period="300.00" file="e2_ATLANTIC_TRIGGS_enter_3.xml"/>
    <laneAreaDetector id="e2_ATLANTIC_TRIGGS_enter_4" lanes="ne8_864952781_3 ne8_975003948-AddedOnRampEdge_4" pos="141.25" endPos="94.00" period="300.00" file="e2_ATLANTIC_TRIGGS_enter_4.xml"/>
    <laneAreaDetector id="e2_ATLANTIC_TRIGGS_exit_0" lanes="ne7_95049424#1_0 exit_to_ATLANTIC_TRIGGS_0" pos="0.00" endPos="100.00" period="300.00" file="e2_ATLANTIC_TRIGGS_exit_0.xml"/>
    <laneAreaDetector id="e2_ATLANTIC_TRIGGS_exit_1" lanes="ne7_95049424#1_1 ne8_864952781_0" pos="0.00" endPos="100.00" period="300.00" file="e2_ATLANTIC_TRIGGS_exit_1.xml"/>
    <laneAreaDetector id="e2_ATLANTIC_TRIGGS_exit_2" lanes="ne7_95049424#1_2 ne8_864952781_1" pos="0.00" endPos="100.00" period="300.00" file="e2_ATLANTIC_TRIGGS_exit_2.xml"/>
    <laneAreaDetector id="e2_ATLANTIC_TRIGGS_exit_3" lanes="ne7_95049424#1_3 ne8_864952781_2" pos="0.00" endPos="100.00" period="300.00" file="e2_ATLANTIC_TRIGGS_exit_3.xml"/>
    <laneAreaDetector id="e2_ATLANTIC_TRIGGS_exit_4" lanes="ne7_95049424#1_4 ne8_864952781_3" pos="0.00" endPos="100.00" period="300.00" file="e2_ATLANTIC_TRIGGS_exit_4.xml"/>
    <laneAreaDetector id="e2_ATLANTIC_TRIGGS_on_ramp_0" lane="source_ATLANTIC_TRIGGS_0" pos="2.80" length="56.00" period="300.00" file="e2_ATLANTIC_TRIGGS_on_ramp_0.xml"/>
    <laneAreaDetector id="e2_ATLANTIC_enter_0" lanes="398193502_0 ne7_95049424#1-AddedOnRampEdge_0" pos="71.43" endPos="98.00" period="300.00" file="e2_ATLANTIC_enter_0.xml"/>
    <laneAreaDetector id="e2_ATLANTIC_enter_1" lanes="ne7_864942146_0 ne7_95049424#1-AddedOnRampEdge_1" pos="334.24" endPos="98.00" period="300.00" file="e2_ATLANTIC_enter_1.xml"/>
    <laneAreaDetector id="e2_ATLANTIC_enter_2" lanes="ne7_864942146_1 ne7_95049424#1-AddedOnRampEdge_2" pos="334.24" endPos="98.00" period="300.00" file="e2_ATLANTIC_enter_2.xml"/>
    <laneAreaDetector id="e2_ATLANTIC_enter_3" lanes="ne7_864942146_2 ne7_95049424#1-AddedOnRampEdge_3" pos="334.24" endPos="98.00" period="300.00" file="e2_ATLANTIC_enter_3.xml"/>
    <laneAreaDetector id="e2_ATLANTIC_enter_4" lanes="ne7_864942146_3 ne7_95049424#1-AddedOnRampEdge_4" pos="334.24" endPos="98.00" period="300.00" file="e2_ATLANTIC_enter_4.xml"/>
    <laneAreaDetector id="e2_ATLANTIC_exit_0" lanes="ne6_32296822-AddedOffRampEdge_0 exit_to_ATLANTIC_BLVD_0" pos="0.00" endPos="100.00" period="300.00" file="e2_ATLANTIC_exit_0.xml"/>
    <laneAreaDetector id="e2_ATLANTIC_exit_1" lanes="ne6_32296822-AddedOffRampEdge_1 ne7_864942146_0" pos="0.00" endPos="100.00" period="300.00" file="e2_ATLANTIC_exit_1.xml"/>
    <laneAreaDetector id="e2_ATLANTIC_exit_2" lanes="ne6_32296822-AddedOffRampEdge_2 ne7_864942146_1" pos="0.00" endPos="100.00" period="300.00" file="e2_ATLANTIC_exit_2.xml"/>
    <laneAreaDetector id="e2_ATLANTIC_exit_3" lanes="ne6_32296822-AddedOffRampEdge_3 ne7_864942146_2" pos="0.00" endPos="100.00" period="300.00" file="e2_ATLANTIC_exit_3.xml"/>
    <laneAreaDetector id="e2_ATLANTIC_exit_4" lanes="ne6_32296822-AddedOffRampEdge_4 ne7_864942146_3" pos="0.00" endPos="100.00" period="300.00" file="e2_ATLANTIC_exit_4.xml"/>
    <laneAreaDetector id="e2_ATLANTIC_on_ramp_0" lanes="source_ATLANTIC_BLVD_0 4004150.47_0" pos="3.00" endPos="9.00" period="300.00" file="e2_ATLANTIC_on_ramp_0.xml"/>
    <laneAreaDetector id="e2_ATLANTIC_on_ramp_1" lanes="source_ATLANTIC_BLVD_1 4004150.47_1 398193502_0" pos="4.35" endPos="51.37" period="300.00" file="e2_ATLANTIC_on_ramp_1.xml"/>
    <laneAreaDetector id="e2_CALZONA_enter_0" lanes="139639760.97.66_0 863776290#1-AddedOnRampEdge_0" pos="0.00" endPos="94.00" period="300.00" file="e2_CALZONA_enter_0.xml"/>
    <laneAreaDetector id="e2_CALZONA_enter_1" lanes="863776290#0_0 863776290#1-AddedOnRampEdge_1" pos="85.00" endPos="94.00" period="300.00" file="e2_CALZONA_enter_1.xml"/>
    <laneAreaDetector id="e2_CALZONA_enter_2" lanes="863776290#0_1 863776290#1-AddedOnRampEdge_2" pos="85.00" endPos="94.00" period="300.00" file="e2_CALZONA_enter_2.xml"/>
    <laneAreaDetector id="e2_CALZONA_enter_3" lanes="863776290#0_2 863776290#1-AddedOnRampEdge_3" pos="85.00" endPos="94.00" period="300.00" file="e2_CALZONA_enter_3.xml"/>
    <laneAreaDetector id="e2_CALZONA_enter_4" lanes="863776290#0_3 863776290#1-AddedOnRampEdge_4" pos="85.00" endPos="94.00" period="300.00" file="e2_CALZONA_enter_4.xml"/>
    <laneAreaDetector id="e2_CALZONA_enter_5" lanes="863776290#0_4 863776290#1-AddedOnRampEdge_5" pos="85.00" endPos="94.00" period="300.00" file="e2_CALZONA_enter_5.xml"/>
    <laneAreaDetector id="e2_CALZONA_exit_0" lanes="ne10_881914877-AddedOffRampEdge_0 exit_to_CALZONA_ST_0" pos="0.00" endPos="92.00" period="300.00" file="e2_CALZONA_exit_0.xml"/>
    <laneAreaDetector id="e2_CALZONA_exit_1" lanes="ne10_881914877-AddedOffRampEdge_1 863776290#0_0" pos="0.00" endPos="85.00" period="300.00" file="e2_CALZONA_exit_1.xml"/>
    <laneAreaDetector id="e2_CALZONA_exit_2" lanes="ne10_881914877-AddedOffRampEdge_2 863776290#0_1" pos="0.00" endPos="85.00" period="300.00" file="e2_CALZONA_exit_2.xml"/>
    <laneAreaDetector id="e2_CALZONA_exit_3" lanes="ne10_881914877-AddedOffRampEdge_3 863776290#0_2" pos="0.00" endPos="85.00" period="300.00" file="e2_CALZONA_exit_3.xml"/>
    <laneAreaDetector id="e2_CALZONA_exit_4" lanes="ne10_881914877-AddedOffRampEdge_4 863776290#0_3" pos="0.00" endPos="85.00" period="300.00" file="e2_CALZONA_exit_4.xml"/>
    <laneAreaDetector id="e2_CALZONA_exit_5" lanes="ne10_881914877-AddedOffRampEdge_5 863776290#0_4" pos="0.00" endPos="85.00" period="300.00" file="e2_CALZONA_exit_5.xml"/>
    <laneAreaDetector id="e2_CALZONA_on_ramp_0" lane="source_CALZONA_0" pos="0.00" length="62.00" period="300.00" file="e2_CALZONA_on_ramp_0.xml"/>
    <laneAreaDetector id="e2_DITMAN_enter_0" lanes="9586207.61_0 ne10_397998296_0" pos="0.00" endPos="26.00" period="300.00" file="e2_DITMAN_enter_0.xml"/>
    <laneAreaDetector id="e2_DITMAN_enter_1" lanes="ne10_864961752_0 ne10_397998296_1 ne10_881914877_0" pos="85.00" endPos="74.00" period="300.00" file="e2_DITMAN_enter_1.xml"/>
    <laneAreaDetector id="e2_DITMAN_enter_2" lanes="ne10_864961752_1 ne10_397998296_2 ne10_881914877_1" pos="85.00" endPos="74.00" period="300.00" file="e2_DITMAN_enter_2.xml"/>
    <laneAreaDetector id="e2_DITMAN_enter_3" lanes="ne10_864961752_2 ne10_397998296_3 ne10_881914877_2" pos="85.00" endPos="74.00" period="300.00" file="e2_DITMAN_enter_3.xml"/>
    <laneAreaDetector id="e2_DITMAN_enter_4" lanes="ne10_864961752_3 ne10_397998296_4 ne10_881914877_3" pos="85.00" endPos="74.00" period="300.00" file="e2_DITMAN_enter_4.xml"/>
    <laneAreaDetector id="e2_DITMAN_enter_5" lanes="ne10_864961752_4 ne10_397998296_5 ne10_881914877_4" pos="85.00" endPos="74.00" period="300.00" file="e2_DITMAN_enter_5.xml"/>
    <laneAreaDetector id="e2_DITMAN_exit_0" lanes="ne9_864961753-AddedOffRampEdge_0 exit_to_DITMAN_AVE_0" pos="0.00" endPos="100.00" period="300.00" file="e2_DITMAN_exit_0.xml"/>
    <laneAreaDetector id="e2_DITMAN_exit_1" lanes="ne9_864961753-AddedOffRampEdge_1 ne10_864961752_0" pos="0.00" endPos="85.00" period="300.00" file="e2_DITMAN_exit_1.xml"/>
    <laneAreaDetector id="e2_DITMAN_exit_2" lanes="ne9_864961753-AddedOffRampEdge_2 ne10_864961752_1" pos="0.00" endPos="85.00" period="300.00" file="e2_DITMAN_exit_2.xml"/>
    <laneAreaDetector id="e2_DITMAN_exit_3" lanes="ne9_864961753-AddedOffRampEdge_3 ne10_864961752_2" pos="0.00" endPos="85.00" period="300.00" file="e2_DITMAN_exit_3.xml"/>
    <laneAreaDetector id="e2_DITMAN_exit_4" lanes="ne9_864961753-AddedOffRampEdge_4 ne10_864961752_3" pos="0.00" endPos="85.00" period="300.00" file="e2_DITMAN_exit_4.xml"/>
    <laneAreaDetector id="e2_DITMAN_exit_5" lanes="ne9_864961753-AddedOffRampEdge_5 ne10_864961752_4" pos="0.00" endPos="85.00" period="300.00" file="e2_DITMAN_exit_5.xml"/>
    <laneAreaDetector id="e2_DITMAN_on_ramp_0" lane="9586207_0" pos="0.00" length="58.00" period="300.00" file="e2_DITMAN_on_ramp_0.xml"/>
    <laneAreaDetector id="e2_DOWNEY_enter_0" lanes="4370760.101_0 ne9_864961753-AddedOnRampEdge_0" pos="217.42" endPos="94.00" period="300.00" file="e2_DOWNEY_enter_0.xml"/>
    <laneAreaDetector id="e2_DOWNEY_enter_1" lanes="ne9_94666085_0 ne9_864961753-AddedOnRampEdge_1" pos="710.80" endPos="94.00" period="300.00" file="e2_DOWNEY_enter_1.xml"/>
    <laneAreaDetector id="e2_DOWNEY_enter_2" lanes="ne9_94666085_1 ne9_864961753-AddedOnRampEdge_2" pos="710.80" endPos="94.00" period="300.00" file="e2_DOWNEY_enter_2.xml"/>
    <laneAreaDetector id="e2_DOWNEY_enter_3" lanes="ne9_94666085_2 ne9_864961753-AddedOnRampEdge_3" pos="710.80" endPos="94.00" period="300.00" file="e2_DOWNEY_enter_3.xml"/>
    <laneAreaDetector id="e2_DOWNEY_enter_4" lanes="ne9_94666085_3 ne9_864961753-AddedOnRampEdge_4" pos="710.80" endPos="94.00" period="300.00" file="e2_DOWNEY_enter_4.xml"/>
    <laneAreaDetector id="e2_DOWNEY_enter_5" lanes="ne9_94666085_4 ne9_864961753-AddedOnRampEdge_5" pos="710.80" endPos="94.00" period="300.00" file="e2_DOWNEY_enter_5.xml"/>
    <laneAreaDetector id="e2_DOWNEY_on_ramp_0" lanes="source_DOWNEY_0 4370760.101_0" pos="42.18" endPos="55.01" period="300.00" file="e2_DOWNEY_on_ramp_0.xml"/>
    <laneAreaDetector id="e2_EASTERN_exit_0" lanes="ne8_975003949-AddedOffRampEdge_0 exit_to_EASTERN_AVE_0" pos="0.00" endPos="100.00" period="300.00" file="e2_EASTERN_exit_0.xml"/>
    <laneAreaDetector id="e2_EASTERN_exit_1" lanes="ne8_975003949-AddedOffRampEdge_1 ne9_386112525_0" pos="0.00" endPos="50.00" period="300.00" file="e2_EASTERN_exit_1.xml"/>
    <laneAreaDetector id="e2_EASTERN_exit_2" lanes="ne8_975003949-AddedOffRampEdge_2 ne9_386112525_1" pos="0.00" endPos="50.00" period="300.00" file="e2_EASTERN_exit_2.xml"/>
    <laneAreaDetector id="e2_EASTERN_exit_3" lanes="ne8_975003949-AddedOffRampEdge_3 ne9_386112525_2" pos="0.00" endPos="50.00" period="300.00" file="e2_EASTERN_exit_3.xml"/>
    <laneAreaDetector id="e2_EASTERN_exit_4" lanes="ne8_975003949-AddedOffRampEdge_4 ne9_386112525_3" pos="0.00" endPos="50.00" period="300.00" file="e2_EASTERN_exit_4.xml"/>
    <laneAreaDetector id="e2_EASTERN_exit_5" lanes="ne8_975003949-AddedOffRampEdge_5 ne9_386112525_4" pos="0.00" endPos="50.00" period="300.00" file="e2_EASTERN_exit_5.xml"/>
    <laneAreaDetector id="e2_FLORENCE_enter_0" lanes="158716863_0 ne1_28050938#1-AddedOnRampEdge_0" pos="156.91" endPos="94.00" period="300.00" file="e2_FLORENCE_enter_0.xml"/>
    <laneAreaDetector id="e2_FLORENCE_enter_1" lanes="ne1_28050938#0_0 ne1_28050938#1-AddedOnRampEdge_1" pos="515.22" endPos="94.00" period="300.00" file="e2_FLORENCE_enter_1.xml"/>
    <laneAreaDetector id="e2_FLORENCE_enter_2" lanes="ne1_28050938#0_1 ne1_28050938#1-AddedOnRampEdge_2" pos="515.22" endPos="94.00" period="300.00" file="e2_FLORENCE_enter_2.xml"/>
    <laneAreaDetector id="e2_FLORENCE_enter_3" lanes="ne1_28050938#0_2 ne1_28050938#1-AddedOnRampEdge_3" pos="515.22" endPos="94.00" period="300.00" file="e2_FLORENCE_enter_3.xml"/>
    <laneAreaDetector id="e2_FLORENCE_enter_4" lanes="ne1_28050938#0_3 ne1_28050938#1-AddedOnRampEdge_4" pos="515.22" endPos="94.00" period="300.00" file="e2_FLORENCE_enter_4.xml"/>
    <laneAreaDetector id="e2_GARFIELD_enter_0" lanes="965816736_0 ne5_862573275#1-AddedOnRampEdge_0" pos="0.00" endPos="94.00" period="300.00" file="e2_GARFIELD_enter_0.xml"/>
    <laneAreaDetector id="e2_GARFIELD_enter_1" lanes="ne5_862573275#0_0 ne5_862573275#1-AddedOnRampEdge_1" pos="374.96" endPos="94.00" period="300.00" file="e2_GARFIELD_enter_1.xml"/>
    <laneAreaDetector id="e2_GARFIELD_enter_2" lanes="ne5_862573275#0_1 ne5_862573275#1-AddedOnRampEdge_2" pos="374.96" endPos="94.00" period="300.00" file="e2_GARFIELD_enter_2.xml"/>
    <laneAreaDetector id="e2_GARFIELD_enter_3" lanes="ne5_862573275#0_2 ne5_862573275#1-AddedOnRampEdge_3" pos="374.96" endPos="94.00" period="300.00" file="e2_GARFIELD_enter_3.xml"/>
    <laneAreaDetector id="e2_GARFIELD_enter_4" lanes="ne5_862573275#0_3 ne5_862573275#1-AddedOnRampEdge_4" pos="374.96" endPos="94.00" period="300.00" file="e2_GARFIELD_enter_4.xml"/>
    <laneAreaDetector id="e2_GARFIELD_exit_0" lanes="ne4_866203384-AddedOffRampEdge_0 exit_to_GARFIELD_AVE_0" pos="0.00" endPos="100.00" period="300.00" file="e2_GARFIELD_exit_0.xml"/>
    <laneAreaDetector id="e2_GARFIELD_exit_1" lanes="ne4_866203384-AddedOffRampEdge_1 ne5_862573275#0_0" pos="0.00" endPos="100.00" period="300.00" file="e2_GARFIELD_exit_1.xml"/>
    <laneAreaDetector id="e2_GARFIELD_exit_2" lanes="ne4_866203384-AddedOffRampEdge_2 ne5_862573275#0_1" pos="0.00" endPos="100.00" period="300.00" file="e2_GARFIELD_exit_2.xml"/>
    <laneAreaDetector id="e2_GARFIELD_exit_3" lanes="ne4_866203384-AddedOffRampEdge_3 ne5_862573275#0_2" pos="0.00" endPos="100.00" period="300.00" file="e2_GARFIELD_exit_3.xml"/>
    <laneAreaDetector id="e2_GARFIELD_exit_4" lanes="ne4_866203384-AddedOffRampEdge_4 ne5_862573275#0_3" pos="0.00" endPos="100.00" period="300.00" file="e2_GARFIELD_exit_4.xml"/>
    <laneAreaDetector id="e2_GARFIELD_on_ramp_0" lanes="source_TELEGRAPH_GARFIELD_0 965816736-AddedOnRampEdge.70_0" pos="5.54" endPos="23.75" period="300.00" file="e2_GARFIELD_on_ramp_0.xml"/>
    <laneAreaDetector id="e2_GARFIELD_on_ramp_1" lanes="source_TELEGRAPH_GARFIELD_1 965816736-AddedOnRampEdge.70_1" pos="5.70" endPos="22.85" period="300.00" file="e2_GARFIELD_on_ramp_1.xml"/>
    <laneAreaDetector id="e2_I605_NB_enter_0" lanes="source_STUDEBAKER_0 ne1_124100109-AddedOnRampEdge_0" pos="511.70" endPos="94.00" period="300.00" file="e2_I605_NB_enter_0.xml"/>
    <laneAreaDetector id="e2_I605_NB_enter_1" lanes="source_STUDEBAKER_1 ne1_124100109-AddedOnRampEdge_1" pos="511.70" endPos="94.00" period="300.00" file="e2_I605_NB_enter_1.xml"/>
    <laneAreaDetector id="e2_I605_NB_enter_2" lanes="ne1_28050938#1_0 ne1_124100109-AddedOnRampEdge_2" pos="43.07" endPos="94.00" period="300.00" file="e2_I605_NB_enter_2.xml"/>
    <laneAreaDetector id="e2_I605_NB_enter_3" lanes="ne1_28050938#1_1 ne1_124100109-AddedOnRampEdge_3" pos="43.07" endPos="94.00" period="300.00" file="e2_I605_NB_enter_3.xml"/>
    <laneAreaDetector id="e2_I605_NB_enter_4" lanes="ne1_28050938#1_2 ne1_124100109-AddedOnRampEdge_4" pos="43.07" endPos="94.00" period="300.00" file="e2_I605_NB_enter_4.xml"/>
    <laneAreaDetector id="e2_I605_NB_enter_5" lanes="ne1_28050938#1_3 ne1_124100109-AddedOnRampEdge_5" pos="43.07" endPos="94.00" period="300.00" file="e2_I605_NB_enter_5.xml"/>
    <laneAreaDetector id="e2_I605_SB_enter_0" lanes="158726580_0 ne1_158724524#1-AddedOnRampEdge_0" pos="267.16" endPos="94.00" period="300.00" file="e2_I605_SB_enter_0.xml"/>
    <laneAreaDetector id="e2_I605_SB_enter_1" lanes="ne1_124100109_0 ne1_158724524#1-AddedOnRampEdge_1" pos="27.81" endPos="94.00" period="300.00" file="e2_I605_SB_enter_1.xml"/>
    <laneAreaDetector id="e2_I605_SB_enter_2" lanes="ne1_124100109_1 ne1_158724524#1-AddedOnRampEdge_2" pos="27.81" endPos="94.00" period="300.00" file="e2_I605_SB_enter_3.xml"/>
    <laneAreaDetector id="e2_I605_SB_enter_3" lanes="ne1_124100109_2 ne1_158724524#1-AddedOnRampEdge_3" pos="27.81" endPos="94.00" period="300.00" file="e2_I605_SB_enter_3.xml"/>
    <laneAreaDetector id="e2_I605_SB_enter_4" lanes="ne1_124100109_3 ne1_158724524#1-AddedOnRampEdge_4" pos="27.81" endPos="94.00" period="300.00" file="e2_I605_SB_enter_4.xml"/>
    <laneAreaDetector id="e2_I605_exit_0" lanes="ne0_source_0 exit_to_I605_0" pos="416.75" endPos="100.00" period="300.00" file="e2_I605_exit_0.xml"/>
    <laneAreaDetector id="e2_I605_exit_1" lanes="ne0_source_1 exit_to_I605_1" pos="416.75" endPos="100.00" period="300.00" file="e2_I605_exit_1.xml"/>
    <laneAreaDetector id="e2_I605_exit_2" lanes="ne0_source_2 ne1_28050938#0_0" pos="416.75" endPos="100.00" period="300.00" file="e2_I605_exit_2.xml"/>
    <laneAreaDetector id="e2_I605_exit_3" lanes="ne0_source_3 ne1_28050938#0_1" pos="416.75" endPos="100.00" period="300.00" file="e2_I605_exit_3.xml"/>
    <laneAreaDetector id="e2_I605_exit_4" lanes="ne0_source_4 ne1_28050938#0_2" pos="416.75" endPos="100.00" period="300.00" file="e2_I605_exit_4.xml"/>
    <laneAreaDetector id="e2_I605_exit_5" lanes="ne0_source_5 ne1_28050938#0_3" pos="416.75" endPos="100.00" period="300.00" file="e2_I605_exit_5.xml"/>
    <laneAreaDetector id="e2_I710_enter_0" lanes="ne9_386112536_0 ne9_94666085_0" pos="659.97" endPos="100.00" period="300.00" file="e2_I710_enter_0.xml"/>
    <laneAreaDetector id="e2_I710_enter_1" lanes="ne9_386112536_1 ne9_94666085_1" pos="659.97" endPos="100.00" period="300.00" file="e2_I710_enter_1.xml"/>
    <laneAreaDetector id="e2_I710_enter_2" lanes="ne9_386112536_2 ne9_94666085_2" pos="659.97" endPos="100.00" period="300.00" file="e2_I710_enter_2.xml"/>
    <laneAreaDetector id="e2_I710_enter_3" lanes="ne9_386112536_3 ne9_94666085_3" pos="659.97" endPos="100.00" period="300.00" file="e2_I710_enter_3.xml"/>
    <laneAreaDetector id="e2_I710_enter_4" lanes="28895784_0 ne9_94666085_4" pos="267.09" endPos="100.00" period="300.00" file="e2_I710_enter_4.xml"/>
    <laneAreaDetector id="e2_I710_exit_0" lanes="ne9_386112525_0 ne9_386112536_0" pos="50.00" endPos="100.00" period="300.00" file="e2_I710_exit_0.xml"/>
    <laneAreaDetector id="e2_I710_exit_1" lanes="ne9_386112525_1 ne9_386112536_1" pos="50.00" endPos="100.00" period="300.00" file="e2_I710_exit_1.xml"/>
    <laneAreaDetector id="e2_I710_exit_2" lanes="ne9_386112525_2 ne9_386112536_2" pos="50.00" endPos="100.00" period="300.00" file="e2_I710_exit_2.xml"/>
    <laneAreaDetector id="e2_I710_exit_3" lanes="ne9_386112525_3 ne9_386112536_3" pos="50.00" endPos="100.00" period="300.00" file="e2_I710_exit_3.xml"/>
    <laneAreaDetector id="e2_I710_exit_4" lanes="ne9_386112525_4 exit_to_I710_0" pos="50.00" endPos="100.00" period="300.00" file="e2_I710_exit_4.xml"/>
    <laneAreaDetector id="e2_LAKEWOOD_NB_enter_0" lanes="399669014_0 ne2_32296077_0" pos="0.00" endPos="58.00" period="300.00" file="e2_LAKEWOOD_NB_enter_0.xml"/>
    <laneAreaDetector id="e2_LAKEWOOD_NB_enter_1" lanes="ne2_862063814_0 ne2_32296077_1 ne2_32296080_0" pos="150.90" endPos="100.00" period="300.00" file="e2_LAKEWOOD_NB_enter_1.xml"/>
    <laneAreaDetector id="e2_LAKEWOOD_NB_enter_2" lanes="ne2_862063814_1 ne2_32296077_2 ne2_32296080_1" pos="150.90" endPos="100.00" period="300.00" file="e2_LAKEWOOD_NB_enter_2.xml"/>
    <laneAreaDetector id="e2_LAKEWOOD_NB_enter_3" lanes="ne2_862063814_2 ne2_32296077_3 ne2_32296080_2" pos="150.90" endPos="100.00" period="300.00" file="e2_LAKEWOOD_NB_enter_3.xml"/>
    <laneAreaDetector id="e2_LAKEWOOD_NB_enter_4" lanes="ne2_862063814_3 ne2_32296077_4 ne2_32296080_3" pos="150.90" endPos="100.00" period="300.00" file="e2_LAKEWOOD_NB_enter_4.xml"/>
    <laneAreaDetector id="e2_LAKEWOOD_NB_on_ramp_0" lanes="source_NB_LAKEWOOD_0 13275783.140_0" pos="27.46" endPos="10.56" period="300.00" file="e2_LAKEWOOD_NB_on_ramp_0.xml"/>
    <laneAreaDetector id="e2_LAKEWOOD_NB_on_ramp_1" lanes="source_NB_LAKEWOOD_1 13275783.140_1" pos="30.43" endPos="10.06" period="300.00" file="e2_LAKEWOOD_NB_on_ramp_1.xml"/>
    <laneAreaDetector id="e2_LAKEWOOD_SB_enter_0" lanes="399668245_0 ne2_866210533-AddedOnRampEdge_0" pos="133.14" endPos="94.00" period="300.00" file="e2_LAKEWOOD_SB_enter_0.xml"/>
    <laneAreaDetector id="e2_LAKEWOOD_SB_enter_1" lanes="ne2_32296080_0 ne2_866210533-AddedOnRampEdge_1" pos="195.91" endPos="94.00" period="300.00" file="e2_LAKEWOOD_SB_enter_1.xml"/>
    <laneAreaDetector id="e2_LAKEWOOD_SB_enter_2" lanes="ne2_32296080_1 ne2_866210533-AddedOnRampEdge_2" pos="195.91" endPos="94.00" period="300.00" file="e2_LAKEWOOD_SB_enter_2.xml"/>
    <laneAreaDetector id="e2_LAKEWOOD_SB_enter_3" lanes="ne2_32296080_2 ne2_866210533-AddedOnRampEdge_3" pos="195.91" endPos="94.00" period="300.00" file="e2_LAKEWOOD_SB_enter_3.xml"/>
    <laneAreaDetector id="e2_LAKEWOOD_SB_enter_4" lanes="ne2_32296080_3 ne2_866210533-AddedOnRampEdge_4" pos="195.91" endPos="94.00" period="300.00" file="e2_LAKEWOOD_SB_enter_4.xml"/>
    <laneAreaDetector id="e2_LAKEWOOD_SB_on_ramp_0" lanes="23426514_0 23426514.71_0" pos="6.69" endPos="14.10" period="300.00" file="e2_LAKEWOOD_SB_on_ramp_0.xml"/>
    <laneAreaDetector id="e2_LAKEWOOD_SB_on_ramp_1" lanes="23426514_1 23426514.71_1" pos="9.30" endPos="13.43" period="300.00" file="e2_LAKEWOOD_SB_on_ramp_1.xml"/>
    <laneAreaDetector id="e2_LAKEWOOD_exit_0" lanes="ne1_158724524#1-AddedOffRampEdge_0 139639762_0" pos="0.00" endPos="100.00" period="300.00" file="e2_LAKEWOOD_exit_0.xml"/>
    <laneAreaDetector id="e2_LAKEWOOD_exit_1" lanes="ne1_158724524#1-AddedOffRampEdge_1 ne2_862063814_0" pos="0.00" endPos="100.00" period="300.00" file="e2_LAKEWOOD_exit_1.xml"/>
    <laneAreaDetector id="e2_LAKEWOOD_exit_2" lanes="ne1_158724524#1-AddedOffRampEdge_2 ne2_862063814_1" pos="0.00" endPos="100.00" period="300.00" file="e2_LAKEWOOD_exit_2.xml"/>
    <laneAreaDetector id="e2_LAKEWOOD_exit_3" lanes="ne1_158724524#1-AddedOffRampEdge_3 ne2_862063814_2" pos="0.00" endPos="100.00" period="300.00" file="e2_LAKEWOOD_exit_3.xml"/>
    <laneAreaDetector id="e2_LAKEWOOD_exit_4" lanes="ne1_158724524#1-AddedOffRampEdge_4 ne2_862063814_3" pos="0.00" endPos="100.00" period="300.00" file="e2_LAKEWOOD_exit_4.xml"/>
    <laneAreaDetector id="e2_PARAMOUNT_enter_0" lanes="399654775_0 ne3_32296182#1-AddedOnRampEdge_0" pos="15.00" endPos="94.00" period="300.00" file="e2_PARAMOUNT_enter_0.xml"/>
    <laneAreaDetector id="e2_PARAMOUNT_enter_1" lanes="ne3_866210532_0 ne3_32296182#1-AddedOnRampEdge_1" pos="213.87" endPos="94.00" period="300.00" file="e2_PARAMOUNT_enter_1.xml"/>
    <laneAreaDetector id="e2_PARAMOUNT_enter_2" lanes="ne3_866210532_1 ne3_32296182#1-AddedOnRampEdge_2" pos="213.87" endPos="94.00" period="300.00" file="e2_PARAMOUNT_enter_2.xml"/>
    <laneAreaDetector id="e2_PARAMOUNT_enter_3" lanes="ne3_866210532_2 ne3_32296182#1-AddedOnRampEdge_3" pos="213.87" endPos="94.00" period="300.00" file="e2_PARAMOUNT_enter_3.xml"/>
    <laneAreaDetector id="e2_PARAMOUNT_enter_4" lanes="ne3_866210532_3 ne3_32296182#1-AddedOnRampEdge_4" pos="213.87" endPos="94.00" period="300.00" file="e2_PARAMOUNT_enter_4.xml"/>
    <laneAreaDetector id="e2_PARAMOUNT_exit_0" lanes="ne2_866210533-AddedOffRampEdge_0 exit_to_PARAMOUNT_BLVD_0" pos="0.00" endPos="100.00" period="300.00" file="e2_PARAMOUNT_exit_0.xml"/>
    <laneAreaDetector id="e2_PARAMOUNT_exit_1" lanes="ne2_866210533-AddedOffRampEdge_1 ne3_866210532_0" pos="0.00" endPos="100.00" period="300.00" file="e2_PARAMOUNT_exit_1.xml"/>
    <laneAreaDetector id="e2_PARAMOUNT_exit_2" lanes="ne2_866210533-AddedOffRampEdge_2 ne3_866210532_1" pos="0.00" endPos="100.00" period="300.00" file="e2_PARAMOUNT_exit_2.xml"/>
    <laneAreaDetector id="e2_PARAMOUNT_exit_3" lanes="ne2_866210533-AddedOffRampEdge_3 ne3_866210532_2" pos="0.00" endPos="100.00" period="300.00" file="e2_PARAMOUNT_exit_3.xml"/>
    <laneAreaDetector id="e2_PARAMOUNT_exit_4" lanes="ne2_866210533-AddedOffRampEdge_4 ne3_866210532_3" pos="0.00" endPos="100.00" period="300.00" file="e2_PARAMOUNT_exit_4.xml"/>
    <laneAreaDetector id="e2_PARAMOUNT_on_ramp_0" lanes="source_PARAMOUNT_BLVD_0 178116793.68_0" pos="10.51" endPos="3.50" period="300.00" file="e2_PARAMOUNT_on_ramp_0.xml"/>
    <laneAreaDetector id="e2_PARAMOUNT_on_ramp_1" lanes="source_PARAMOUNT_BLVD_1 178116793.68_1" pos="11.84" endPos="4.95" period="300.00" file="e2_PARAMOUNT_on_ramp_1.xml"/>
    <laneAreaDetector id="e2_SLAUSON_exit_0" lanes="ne3_32296182#1-AddedOffRampEdge_0 exit_to_SLAUSON_AVE_0" pos="0.00" endPos="100.00" period="300.00" file="e2_SLAUSON_exit_0.xml"/>
    <laneAreaDetector id="e2_SLAUSON_exit_1" lanes="ne3_32296182#1-AddedOffRampEdge_1 ne4_866203384_0" pos="0.00" endPos="100.00" period="300.00" file="e2_SLAUSON_exit_1.xml"/>
    <laneAreaDetector id="e2_SLAUSON_exit_2" lanes="ne3_32296182#1-AddedOffRampEdge_2 ne4_866203384_1" pos="0.00" endPos="100.00" period="300.00" file="e2_SLAUSON_exit_2.xml"/>
    <laneAreaDetector id="e2_SLAUSON_exit_3" lanes="ne3_32296182#1-AddedOffRampEdge_3 ne4_866203384_2" pos="0.00" endPos="100.00" period="300.00" file="e2_SLAUSON_exit_3.xml"/>
    <laneAreaDetector id="e2_SLAUSON_exit_4" lanes="ne3_32296182#1-AddedOffRampEdge_4 ne4_866203384_3" pos="0.00" endPos="100.00" period="300.00" file="e2_SLAUSON_exit_4.xml"/>
    <laneAreaDetector id="e2_WASHINGTON_enter_0" lanes="23394679.167_0 ne6_32296822-AddedOnRampEdge_0" pos="0.00" endPos="94.00" period="300.00" file="e2_WASHINGTON_enter_0.xml"/>
    <laneAreaDetector id="e2_WASHINGTON_enter_1" lanes="ne6_866201289_0 ne6_32296822-AddedOnRampEdge_1" pos="492.77" endPos="94.00" period="300.00" file="e2_WASHINGTON_enter_1.xml"/>
    <laneAreaDetector id="e2_WASHINGTON_enter_2" lanes="ne6_866201289_1 ne6_32296822-AddedOnRampEdge_2" pos="492.77" endPos="94.00" period="300.00" file="e2_WASHINGTON_enter_2.xml"/>
    <laneAreaDetector id="e2_WASHINGTON_enter_3" lanes="ne6_866201289_2 ne6_32296822-AddedOnRampEdge_3" pos="492.77" endPos="94.00" period="300.00" file="e2_WASHINGTON_enter_3.xml"/>
    <laneAreaDetector id="e2_WASHINGTON_enter_4" lanes="ne6_866201289_3 ne6_32296822-AddedOnRampEdge_4" pos="492.77" endPos="94.00" period="300.00" file="e2_WASHINGTON_enter_4.xml"/>
    <laneAreaDetector id="e2_WASHINGTON_exit_0" lanes="ne5_862573275#1-AddedOffRampEdge_0 exit_to_WASHINGTON_BLVD_0" pos="0.00" endPos="100.00" period="300.00" file="e2_WASHINGTON_exit_0.xml"/>
    <laneAreaDetector id="e2_WASHINGTON_exit_1" lanes="ne5_862573275#1-AddedOffRampEdge_1 ne6_866201289_0" pos="0.00" endPos="100.00" period="300.00" file="e2_WASHINGTON_exit_1.xml"/>
    <laneAreaDetector id="e2_WASHINGTON_exit_2" lanes="ne5_862573275#1-AddedOffRampEdge_2 ne6_866201289_1" pos="0.00" endPos="100.00" period="300.00" file="e2_WASHINGTON_exit_2.xml"/>