<?xml version="1.0" encoding="UTF-8"?>

<!-- generated on 2022-11-02 11:27:17 by Eclipse SUMO netedit Version 1.14.1
<configuration xmlns:xsi="http://www.w3.org/2001/XMLSchema-instance" xsi:noNamespaceSchemaLocation="http://sumo.dlr.de/xsd/netconvertConfiguration.xsd">

    <input>
        <sumo-net-file value="osm.net.xml"/>
    </input>

    <output>
        <output-file value="osm.net.xml"/>
        <output.street-names value="true"/>
    </output>

    <processing>
        <geometry.min-radius.fix.railways value="false"/>
        <geometry.max-grade.fix value="false"/>
        <offset.disable-normalization value="true"/>
        <lefthand value="false"/>
    </processing>

    <junctions>
        <no-turnarounds value="true"/>
        <junctions.corner-detail value="5"/>
        <junctions.limit-turn-speed value="5.5"/>
        <rectangular-lane-cut value="false"/>
    </junctions>

    <pedestrian>
        <walkingareas value="false"/>
    </pedestrian>

    <netedit>
        <additional-files value="/home/tjzhang/Documents/VEINS_Connected_Vehicles/Interstate_5/osm.add.xml"/>
        <route-files value="/home/tjzhang/Documents/VEINS_Connected_Vehicles/Interstate_5/osm_pt.rou.xml"/>
    </netedit>

</configuration>
-->

<net version="1.9" junctionCornerDetail="5" limitTurnSpeed="5.50" xmlns:xsi="http://www.w3.org/2001/XMLSchema-instance" xsi:noNamespaceSchemaLocation="http://sumo.dlr.de/xsd/net_file.xsd">

    <location netOffset="-386338.38,-3754869.99" convBoundary="800.06,296.66,13387.63,12438.41" origBoundary="-118.231168,33.929474,-118.085324,34.044103" projParameter="+proj=utm +zone=11 +ellps=WGS84 +datum=WGS84 +units=m +no_defs"/>

    <type id="highway.bridleway" priority="1" numLanes="1" speed="2.78" allow="pedestrian" oneway="1" width="2.00"/>
    <type id="highway.bus_guideway" priority="1" numLanes="1" speed="27.78" allow="bus" oneway="1"/>
    <type id="highway.cycleway" priority="1" numLanes="1" speed="8.33" allow="bicycle" oneway="0" width="1.00"/>
    <type id="highway.footway" priority="1" numLanes="1" speed="2.78" allow="pedestrian" oneway="1" width="2.00"/>
    <type id="highway.ford" priority="1" numLanes="1" speed="2.78" allow="army" oneway="0"/>
    <type id="highway.living_street" priority="2" numLanes="1" speed="2.78" disallow="tram rail_urban rail rail_electric rail_fast ship" oneway="0"/>
    <type id="highway.motorway" priority="14" numLanes="2" speed="39.44" allow="private emergency authority army vip passenger hov taxi bus coach delivery truck trailer motorcycle evehicle custom1 custom2" oneway="1"/>
    <type id="highway.motorway_link" priority="9" numLanes="1" speed="22.22" allow="private emergency authority army vip passenger hov taxi bus coach delivery truck trailer motorcycle evehicle custom1 custom2" oneway="1"/>
    <type id="highway.path" priority="1" numLanes="1" speed="2.78" allow="pedestrian bicycle" oneway="0" width="2.00"/>
    <type id="highway.pedestrian" priority="1" numLanes="1" speed="2.78" allow="pedestrian" oneway="1" width="2.00"/>
    <type id="highway.primary" priority="12" numLanes="2" speed="27.78" disallow="tram rail_urban rail rail_electric rail_fast ship" oneway="0"/>
    <type id="highway.primary_link" priority="7" numLanes="1" speed="22.22" disallow="tram rail_urban rail rail_electric rail_fast ship" oneway="0"/>
    <type id="highway.raceway" priority="15" numLanes="2" speed="83.33" allow="vip" oneway="0"/>
    <type id="highway.residential" priority="3" numLanes="1" speed="13.89" disallow="tram rail_urban rail rail_electric rail_fast ship" oneway="0"/>
    <type id="highway.secondary" priority="11" numLanes="1" speed="27.78" disallow="tram rail_urban rail rail_electric rail_fast ship" oneway="0"/>
    <type id="highway.secondary_link" priority="6" numLanes="1" speed="22.22" disallow="tram rail_urban rail rail_electric rail_fast ship" oneway="0"/>
    <type id="highway.service" priority="1" numLanes="1" speed="5.56" allow="pedestrian delivery bicycle" oneway="0"/>
    <type id="highway.stairs" priority="1" numLanes="1" speed="1.39" allow="pedestrian" oneway="1" width="2.00"/>
    <type id="highway.step" priority="1" numLanes="1" speed="1.39" allow="pedestrian" oneway="1" width="2.00"/>
    <type id="highway.steps" priority="1" numLanes="1" speed="1.39" allow="pedestrian" oneway="1" width="2.00"/>
    <type id="highway.tertiary" priority="10" numLanes="1" speed="22.22" disallow="tram rail_urban rail rail_electric rail_fast ship" oneway="0"/>
    <type id="highway.tertiary_link" priority="5" numLanes="1" speed="22.22" disallow="tram rail_urban rail rail_electric rail_fast ship" oneway="0"/>
    <type id="highway.track" priority="1" numLanes="1" speed="5.56" allow="pedestrian motorcycle moped bicycle" oneway="0"/>
    <type id="highway.trunk" priority="13" numLanes="2" speed="27.78" disallow="pedestrian bicycle tram rail_urban rail rail_electric rail_fast ship" oneway="0"/>
    <type id="highway.trunk_link" priority="8" numLanes="1" speed="22.22" disallow="pedestrian bicycle tram rail_urban rail rail_electric rail_fast ship" oneway="0"/>
    <type id="highway.unclassified" priority="4" numLanes="1" speed="13.89" disallow="tram rail_urban rail rail_electric rail_fast ship" oneway="0"/>
    <type id="highway.unsurfaced" priority="1" numLanes="1" speed="8.33" disallow="tram rail_urban rail rail_electric rail_fast ship" oneway="0"/>
    <type id="railway.highspeed" priority="21" numLanes="1" speed="69.44" allow="rail_fast" oneway="1"/>
    <type id="railway.light_rail" priority="19" numLanes="1" speed="27.78" allow="rail_urban" oneway="1"/>
    <type id="railway.preserved" priority="16" numLanes="1" speed="27.78" allow="rail" oneway="1"/>
    <type id="railway.rail" priority="20" numLanes="1" speed="44.44" allow="rail" oneway="1"/>
    <type id="railway.subway" priority="18" numLanes="1" speed="27.78" allow="rail_urban" oneway="1"/>
    <type id="railway.tram" priority="17" numLanes="1" speed="13.89" allow="tram" oneway="1"/>

    <edge id=":1098842610_0" function="internal">
        <lane id=":1098842610_0_0" index="0" allow="private emergency authority army vip passenger hov taxi bus coach delivery truck trailer motorcycle evehicle custom1 custom2" speed="22.22" length="8.13" shape="7840.46,7498.60 7839.54,7500.79 7839.28,7502.44 7839.05,7504.10 7838.22,7506.33"/>
        <lane id=":1098842610_0_1" index="1" allow="private emergency authority army vip passenger hov taxi bus coach delivery truck trailer motorcycle evehicle custom1 custom2" speed="22.22" length="8.13" shape="7840.46,7498.60 7839.09,7500.57 7837.85,7501.72 7836.64,7502.88 7835.35,7504.90"/>
    </edge>
    <edge id=":1098914985_0" function="internal">
        <lane id=":1098914985_0_0" index="0" allow="private emergency authority army vip passenger hov taxi bus coach delivery truck trailer motorcycle evehicle custom1 custom2" speed="25.64" length="3.19" shape="7675.76,7787.64 7673.94,7790.26"/>
    </edge>
    <edge id=":1098914985_1" function="internal">
        <lane id=":1098914985_1_0" index="0" allow="private emergency authority army vip passenger hov taxi bus coach delivery truck trailer motorcycle evehicle custom1 custom2" speed="29.06" length="2.53" shape="7673.10,7785.91 7671.41,7788.30"/>
        <lane id=":1098914985_1_1" index="1" allow="private emergency authority army vip passenger hov taxi bus coach delivery truck trailer motorcycle evehicle custom1 custom2" speed="29.06" length="2.53" shape="7670.42,7784.17 7668.88,7786.34"/>
        <lane id=":1098914985_1_2" index="2" allow="private emergency authority army vip passenger hov taxi bus coach delivery truck trailer motorcycle evehicle custom1 custom2" speed="29.06" length="2.53" shape="7667.73,7782.43 7666.34,7784.38"/>
        <lane id=":1098914985_1_3" index="3" allow="private emergency authority army vip passenger hov taxi bus coach delivery truck trailer motorcycle evehicle custom1 custom2" speed="29.06" length="2.53" shape="7665.05,7780.69 7663.81,7782.43"/>
    </edge>
    <edge id=":1098915020_0" function="internal">
        <lane id=":1098915020_0_0" index="0" allow="private emergency authority army vip passenger hov taxi bus coach delivery truck trailer motorcycle evehicle custom1 custom2" speed="25.64" length="3.00" shape="7686.41,7709.35 7687.99,7706.80"/>
    </edge>
    <edge id=":1098915020_1" function="internal">
        <lane id=":1098915020_1_0" index="0" allow="private emergency authority army vip passenger hov taxi bus coach delivery truck trailer motorcycle evehicle custom1 custom2" speed="29.06" length="3.22" shape="7689.11,7711.07 7690.65,7708.39"/>
        <lane id=":1098915020_1_1" index="1" allow="private emergency authority army vip passenger hov taxi bus coach delivery truck trailer motorcycle evehicle custom1 custom2" speed="29.06" length="3.22" shape="7691.80,7712.79 7693.39,7710.04"/>
        <lane id=":1098915020_1_2" index="2" allow="private emergency authority army vip passenger hov taxi bus coach delivery truck trailer motorcycle evehicle custom1 custom2" speed="29.06" length="3.22" shape="7694.50,7714.52 7696.14,7711.69"/>
        <lane id=":1098915020_1_3" index="3" allow="private emergency authority army vip passenger hov taxi bus coach delivery truck trailer motorcycle evehicle custom1 custom2" speed="29.06" length="3.22" shape="7697.20,7716.24 7698.89,7713.34"/>
    </edge>
    <edge id=":122393798_0" function="internal">
        <lane id=":122393798_0_0" index="0" disallow="tram rail_urban rail rail_electric rail_fast ship" speed="23.95" length="18.82" shape="8865.11,6319.90 8853.44,6334.69"/>
        <lane id=":122393798_0_1" index="1" disallow="tram rail_urban rail rail_electric rail_fast ship" speed="23.95" length="18.82" shape="8862.59,6317.93 8850.94,6332.69"/>
    </edge>
    <edge id=":122393798_2" function="internal">
        <lane id=":122393798_2_0" index="0" allow="private emergency authority army vip passenger hov taxi bus coach delivery truck trailer motorcycle evehicle custom1 custom2" speed="9.84" length="5.23" shape="8862.59,6317.93 8858.82,6321.56"/>
    </edge>
    <edge id=":122393798_3" function="internal">
        <lane id=":122393798_3_0" index="0" disallow="tram rail_urban rail rail_electric rail_fast ship" speed="3.65" length="1.44" shape="8862.59,6317.93 8861.22,6318.38"/>
    </edge>
    <edge id=":122393798_10" function="internal">
        <lane id=":122393798_10_0" index="0" allow="private emergency authority army vip passenger hov taxi bus coach delivery truck trailer motorcycle evehicle custom1 custom2" speed="9.84" length="15.19" shape="8858.82,6321.56 8858.60,6321.77 8854.27,6323.56 8849.60,6323.31 8844.59,6321.01"/>
    </edge>
    <edge id=":122393798_11" function="internal">
        <lane id=":122393798_11_0" index="0" disallow="tram rail_urban rail rail_electric rail_fast ship" speed="3.65" length="3.23" shape="8861.22,6318.38 8860.34,6318.20 8859.96,6317.39 8860.07,6315.95"/>
    </edge>
    <edge id=":122393798_4" function="internal">
        <lane id=":122393798_4_0" index="0" allow="private emergency authority army vip passenger hov taxi bus coach delivery truck trailer motorcycle evehicle custom1 custom2" speed="5.57" length="9.36" shape="8851.17,6312.77 8852.31,6315.40 8853.76,6316.48 8855.50,6316.00 8857.55,6313.98"/>
    </edge>
    <edge id=":122393798_5" function="internal">
        <lane id=":122393798_5_0" index="0" allow="private emergency authority army vip passenger hov taxi bus coach delivery truck trailer motorcycle evehicle custom1 custom2" speed="13.47" length="22.46" shape="8851.17,6312.77 8853.30,6320.93 8854.39,6327.31 8854.44,6331.90 8853.44,6334.69"/>
        <lane id=":122393798_5_1" index="1" allow="private emergency authority army vip passenger hov taxi bus coach delivery truck trailer motorcycle evehicle custom1 custom2" speed="10.13" length="21.31" shape="8848.04,6313.72 8851.97,6318.69 8853.76,6323.51 8853.42,6328.18 8850.94,6332.69"/>
    </edge>
    <edge id=":122393798_7" function="internal">
        <lane id=":122393798_7_0" index="0" allow="private emergency authority army vip passenger hov taxi bus coach delivery truck trailer motorcycle evehicle custom1 custom2" speed="5.26" length="11.23" shape="8848.04,6313.72 8849.36,6316.54 8848.91,6319.47 8847.16,6321.34 8844.59,6321.01"/>
    </edge>
    <edge id=":122393798_8" function="internal">
        <lane id=":122393798_8_0" index="0" disallow="tram rail_urban rail rail_electric rail_fast ship" speed="23.95" length="18.76" shape="8845.94,6328.70 8857.55,6313.98"/>
        <lane id=":122393798_8_1" index="1" disallow="tram rail_urban rail rail_electric rail_fast ship" speed="23.95" length="18.76" shape="8848.44,6330.70 8860.07,6315.95"/>
    </edge>
    <edge id=":122397020_0" function="internal">
        <lane id=":122397020_0_0" index="0" allow="private emergency authority army vip passenger hov taxi bus coach delivery truck trailer motorcycle evehicle custom1 custom2" speed="22.22" length="4.63" shape="10836.43,3102.13 10837.44,3101.21 10838.16,3100.60 10838.92,3100.03 10840.03,3099.23"/>
    </edge>
    <edge id=":122397020_1" function="internal">
        <lane id=":122397020_1_0" index="0" allow="private emergency authority army vip passenger hov taxi bus coach delivery truck trailer motorcycle evehicle custom1 custom2" speed="18.18" length="4.62" shape="10838.60,3104.48 10839.62,3103.57 10840.36,3102.99 10841.19,3102.54 10842.44,3101.99"/>
        <lane id=":122397020_1_1" index="1" allow="private emergency authority army vip passenger hov taxi bus coach delivery truck trailer motorcycle evehicle custom1 custom2" speed="15.93" length="3.53" shape="10840.77,3106.83 10841.55,3106.13 10842.12,3105.69 10842.75,3105.35 10843.71,3104.93"/>
    </edge>
    <edge id=":122419556_0" function="internal">
        <lane id=":122419556_0_0" index="0" disallow="tram rail_urban rail rail_electric rail_fast ship" speed="23.95" length="0.49" shape="6506.00,9157.47 6505.53,9157.73"/>
        <lane id=":122419556_0_1" index="1" disallow="tram rail_urban rail rail_electric rail_fast ship" speed="23.95" length="0.49" shape="6504.39,9154.71 6504.01,9154.91"/>
    </edge>
    <edge id=":122419556_2" function="internal">
        <lane id=":122419556_2_0" index="0" disallow="tram rail_urban rail rail_electric rail_fast ship" speed="23.95" length="0.19" shape="6499.47,9146.46 6499.53,9146.43"/>
        <lane id=":122419556_2_1" index="1" disallow="tram rail_urban rail rail_electric rail_fast ship" speed="23.95" length="0.19" shape="6500.98,9149.28 6501.15,9149.19"/>
        <lane id=":122419556_2_2" index="2" disallow="tram rail_urban rail rail_electric rail_fast ship" speed="23.95" length="0.19" shape="6502.50,9152.09 6502.77,9151.95"/>
    </edge>
    <edge id=":122461149_0" function="internal">
        <lane id=":122461149_0_0" index="0" allow="private emergency authority army vip passenger hov taxi bus coach delivery truck trailer motorcycle evehicle custom1 custom2" speed="22.22" length="3.17" shape="12286.61,1018.79 12287.27,1019.45 12287.74,1019.90 12288.23,1020.31 12288.97,1020.91"/>
    </edge>
    <edge id=":122461149_1" function="internal">
        <lane id=":122461149_1_0" index="0" allow="private emergency authority army vip passenger hov taxi bus coach delivery truck trailer motorcycle evehicle custom1 custom2" speed="22.22" length="3.17" shape="12284.34,1021.05 12286.58,1023.27"/>
        <lane id=":122461149_1_1" index="1" allow="private emergency authority army vip passenger hov taxi bus coach delivery truck trailer motorcycle evehicle custom1 custom2" speed="22.22" length="3.17" shape="12282.07,1023.31 12284.33,1025.56"/>
    </edge>
    <edge id=":122477603_0" function="internal">
        <lane id=":122477603_0_0" index="0" allow="private emergency authority army vip passenger hov taxi bus coach delivery truck trailer motorcycle evehicle custom1 custom2" speed="24.59" length="3.57" shape="12487.45,960.35 12488.12,959.62 12488.88,959.38 12489.63,959.15 12490.31,958.42"/>
        <lane id=":122477603_0_1" index="1" allow="private emergency authority army vip passenger hov taxi bus coach delivery truck trailer motorcycle evehicle custom1 custom2" speed="24.59" length="3.57" shape="12490.26,961.87 12490.94,961.14 12491.69,960.91 12492.45,960.67 12493.12,959.94"/>
        <lane id=":122477603_0_2" index="2" allow="private emergency authority army vip passenger hov taxi bus coach delivery truck trailer motorcycle evehicle custom1 custom2" speed="24.59" length="3.57" shape="12493.08,963.39 12493.75,962.66 12494.51,962.43 12495.26,962.19 12495.94,961.47"/>
        <lane id=":122477603_0_3" index="3" allow="private emergency authority army vip passenger hov taxi bus coach delivery truck trailer motorcycle evehicle custom1 custom2" speed="24.59" length="3.57" shape="12495.89,964.91 12496.57,964.19 12497.32,963.95 12498.07,963.72 12498.75,962.99"/>
    </edge>
    <edge id=":122477603_4" function="internal">
        <lane id=":122477603_4_0" index="0" allow="private emergency authority army vip passenger hov taxi bus coach delivery truck trailer motorcycle evehicle custom1 custom2" speed="23.41" length="3.06" shape="12486.06,959.59 12487.50,956.89"/>
    </edge>
    <edge id=":122504060_0" function="internal">
        <lane id=":122504060_0_0" index="0" allow="private emergency authority army vip passenger hov taxi bus coach delivery truck trailer motorcycle evehicle custom1 custom2" speed="22.22" length="6.94" shape="9566.13,5261.46 9565.20,5259.52 9563.90,5258.43 9562.72,5257.33 9562.17,5255.34"/>
        <lane id=":122504060_0_1" index="1" allow="private emergency authority army vip passenger hov taxi bus coach delivery truck trailer motorcycle evehicle custom1 custom2" speed="22.22" length="6.94" shape="9566.13,5261.46 9565.74,5259.64 9565.53,5258.38 9565.43,5257.11 9565.37,5255.25"/>
        <lane id=":122504060_0_2" index="2" allow="private emergency authority army vip passenger hov taxi bus coach delivery truck trailer motorcycle evehicle custom1 custom2" speed="22.22" length="6.94" shape="9566.13,5261.46 9566.22,5259.56 9567.12,5258.34 9568.13,5257.10 9568.57,5255.15"/>
    </edge>
    <edge id=":122504062_0" function="internal">
        <lane id=":122504062_0_0" index="0" allow="private emergency authority army vip passenger hov taxi bus coach delivery truck trailer motorcycle evehicle custom1 custom2" speed="10.45" length="14.98" shape="9580.71,5184.71 9578.77,5186.42 9577.33,5189.26 9576.37,5193.24 9575.91,5198.34"/>
        <lane id=":122504062_0_1" index="1" allow="private emergency authority army vip passenger hov taxi bus coach delivery truck trailer motorcycle evehicle custom1 custom2" speed="10.94" length="16.48" shape="9580.71,5184.71 9577.35,5187.06 9574.89,5190.09 9573.35,5193.81 9572.71,5198.21"/>
    </edge>
    <edge id=":122504062_2" function="internal">
        <lane id=":122504062_2_0" index="0" disallow="tram rail_urban rail rail_electric rail_fast ship" speed="20.12" length="21.06" shape="9580.71,5184.71 9575.05,5187.19 9570.91,5188.33 9566.83,5189.56 9561.33,5192.31"/>
        <lane id=":122504062_2_1" index="1" disallow="tram rail_urban rail rail_electric rail_fast ship" speed="20.12" length="21.06" shape="9579.22,5181.88 9573.51,5184.38 9569.35,5185.54 9565.23,5186.78 9559.69,5189.57"/>
        <lane id=":122504062_2_2" index="2" disallow="tram rail_urban rail rail_electric rail_fast ship" speed="20.12" length="21.06" shape="9577.73,5179.04 9571.98,5181.58 9567.78,5182.75 9563.64,5184.01 9558.05,5186.82"/>
    </edge>
    <edge id=":122504062_5" function="internal">
        <lane id=":122504062_5_0" index="0" disallow="tram rail_urban rail rail_electric rail_fast ship" speed="3.65" length="1.44" shape="9576.24,5176.21 9574.80,5176.06"/>
    </edge>
    <edge id=":122504062_14" function="internal">
        <lane id=":122504062_14_0" index="0" disallow="tram rail_urban rail rail_electric rail_fast ship" speed="3.65" length="3.23" shape="9574.80,5176.06 9574.08,5175.54 9574.06,5174.65 9574.75,5173.38"/>
    </edge>
    <edge id=":122504062_6" function="internal">
        <lane id=":122504062_6_0" index="0" disallow="tram rail_urban rail rail_electric rail_fast ship" speed="20.12" length="21.40" shape="9553.13,5178.57 9571.77,5167.72"/>
        <lane id=":122504062_6_1" index="1" disallow="tram rail_urban rail rail_electric rail_fast ship" speed="20.12" length="21.40" shape="9554.77,5181.32 9573.26,5170.55"/>
        <lane id=":122504062_6_2" index="2" disallow="tram rail_urban rail rail_electric rail_fast ship" speed="20.12" length="21.40" shape="9556.41,5184.07 9574.75,5173.38"/>
    </edge>
    <edge id=":122504062_9" function="internal">
        <lane id=":122504062_9_0" index="0" disallow="tram rail_urban rail rail_electric rail_fast ship" speed="3.65" length="1.44" shape="9556.41,5184.07 9557.85,5184.14"/>
    </edge>
    <edge id=":122504062_15" function="internal">
        <lane id=":122504062_15_0" index="0" disallow="tram rail_urban rail rail_electric rail_fast ship" speed="3.65" length="3.23" shape="9557.85,5184.14 9558.60,5184.62 9558.67,5185.52 9558.05,5186.82"/>
    </edge>
    <edge id=":122504062_10" function="internal">
        <lane id=":122504062_10_0" index="0" allow="private emergency authority army vip passenger hov taxi bus coach delivery truck trailer motorcycle evehicle custom1 custom2" speed="5.00" length="7.01" shape="9563.46,5197.86 9563.39,5194.91 9563.02,5193.01 9562.33,5192.14 9561.33,5192.31"/>
    </edge>
    <edge id=":122504062_11" function="internal">
        <lane id=":122504062_11_0" index="0" allow="private emergency authority army vip passenger hov taxi bus coach delivery truck trailer motorcycle evehicle custom1 custom2" speed="14.28" length="28.93" shape="9566.65,5197.98 9567.31,5187.15 9568.63,5178.97 9570.61,5173.44 9573.26,5170.55"/>
        <lane id=":122504062_11_1" index="1" allow="private emergency authority army vip passenger hov taxi bus coach delivery truck trailer motorcycle evehicle custom1 custom2" speed="13.47" length="25.68" shape="9569.85,5198.10 9570.39,5188.13 9571.38,5180.69 9572.83,5175.77 9574.75,5173.38"/>
    </edge>
    <edge id=":122504062_13" function="internal">
        <lane id=":122504062_13_0" index="0" allow="private emergency authority army vip passenger hov taxi bus coach delivery truck trailer motorcycle evehicle custom1 custom2" speed="3.52" length="4.18" shape="9569.85,5198.10 9570.61,5197.06 9571.34,5196.73 9572.04,5197.11 9572.71,5198.21"/>
    </edge>
    <edge id=":122527750_0" function="internal">
        <lane id=":122527750_0_0" index="0" allow="private emergency authority army vip passenger hov taxi bus coach delivery truck trailer motorcycle evehicle custom1 custom2" speed="25.00" length="14.01" shape="10960.96,3184.62 10962.78,3188.34 10964.32,3190.73 10966.05,3193.01 10968.45,3196.41"/>
        <lane id=":122527750_0_1" index="1" allow="private emergency authority army vip passenger hov taxi bus coach delivery truck trailer motorcycle evehicle custom1 custom2" speed="25.00" length="14.55" shape="10958.04,3185.91 10959.92,3189.78 10961.51,3192.27 10963.29,3194.64 10965.78,3198.18"/>
    </edge>
    <edge id=":122527750_2" function="internal">
        <lane id=":122527750_2_0" index="0" disallow="tram rail_urban rail rail_electric rail_fast ship" speed="27.78" length="14.46" shape="10955.11,3187.21 10957.21,3190.99 10959.12,3193.35 10960.88,3195.77 10962.53,3199.72"/>
        <lane id=":122527750_2_1" index="1" disallow="tram rail_urban rail rail_electric rail_fast ship" speed="27.78" length="14.46" shape="10952.18,3188.50 10954.24,3192.18 10956.12,3194.47 10957.86,3196.82 10959.48,3200.66"/>
    </edge>
    <edge id=":122534768_0" function="internal">
        <lane id=":122534768_0_0" index="0" disallow="tram rail_urban rail rail_electric rail_fast ship" speed="27.78" length="11.46" shape="5566.75,9677.66 5556.77,9683.24"/>
        <lane id=":122534768_0_1" index="1" disallow="tram rail_urban rail rail_electric rail_fast ship" speed="27.78" length="11.46" shape="5565.20,9674.86 5555.18,9680.47"/>
    </edge>
    <edge id=":122534768_2" function="internal">
        <lane id=":122534768_2_0" index="0" disallow="tram rail_urban rail rail_electric rail_fast ship" speed="3.65" length="1.44" shape="5565.20,9674.86 5563.76,9674.75"/>
    </edge>
    <edge id=":122534768_7" function="internal">
        <lane id=":122534768_7_0" index="0" disallow="tram rail_urban rail rail_electric rail_fast ship" speed="3.65" length="3.23" shape="5563.76,9674.75 5563.02,9674.24 5562.98,9673.35 5563.64,9672.07"/>
    </edge>
    <edge id=":122534768_3" function="internal">
        <lane id=":122534768_3_0" index="0" allow="private emergency authority army vip passenger hov taxi bus coach delivery truck trailer motorcycle evehicle custom1 custom2" speed="10.25" length="14.76" shape="5556.14,9665.84 5556.18,9671.98 5556.04,9676.46 5555.70,9679.29 5555.18,9680.47"/>
    </edge>
    <edge id=":122534768_4" function="internal">
        <lane id=":122534768_4_0" index="0" disallow="tram rail_urban rail rail_electric rail_fast ship" speed="27.78" length="11.56" shape="5551.98,9674.92 5562.09,9669.27"/>
        <lane id=":122534768_4_1" index="1" disallow="tram rail_urban rail rail_electric rail_fast ship" speed="27.78" length="11.56" shape="5553.58,9677.70 5563.64,9672.07"/>
    </edge>
    <edge id=":122534768_6" function="internal">
        <lane id=":122534768_6_0" index="0" disallow="tram rail_urban rail rail_electric rail_fast ship" speed="3.65" length="1.44" shape="5553.58,9677.70 5555.02,9677.79"/>
    </edge>
    <edge id=":122534768_8" function="internal">
        <lane id=":122534768_8_0" index="0" disallow="tram rail_urban rail rail_electric rail_fast ship" speed="3.65" length="3.23" shape="5555.02,9677.79 5555.76,9678.28 5555.82,9679.18 5555.18,9680.47"/>
    </edge>
    <edge id=":122635622_0" function="internal">
        <lane id=":122635622_0_0" index="0" disallow="tram rail_urban rail rail_electric rail_fast ship" speed="27.78" length="7.96" shape="8293.77,7033.67 8288.87,7039.93"/>
        <lane id=":122635622_0_1" index="1" disallow="tram rail_urban rail rail_electric rail_fast ship" speed="27.78" length="7.96" shape="8291.26,7031.69 8286.34,7037.97"/>
    </edge>
    <edge id=":122635622_2" function="internal">
        <lane id=":122635622_2_0" index="0" disallow="tram rail_urban rail rail_electric rail_fast ship" speed="27.78" length="8.83" shape="8278.76,7032.09 8280.67,7030.44 8282.49,7029.90 8284.31,7029.36 8286.24,7027.72"/>
        <lane id=":122635622_2_1" index="1" disallow="tram rail_urban rail rail_electric rail_fast ship" speed="27.78" length="8.83" shape="8281.29,7034.05 8283.19,7032.41 8285.01,7031.87 8286.83,7031.33 8288.75,7029.71"/>
    </edge>
    <edge id=":122779442_0" function="internal">
        <lane id=":122779442_0_0" index="0" disallow="tram rail_urban rail rail_electric rail_fast ship" speed="3.65" length="4.67" shape="3578.53,10017.58 3579.32,10016.38 3580.12,10015.97 3580.92,10016.36 3581.73,10017.56"/>
    </edge>
    <edge id=":122786597_0" function="internal">
        <lane id=":122786597_0_0" index="0" disallow="tram rail_urban rail rail_electric rail_fast ship" speed="13.21" length="28.55" shape="9871.37,5116.83 9862.80,5114.67 9855.49,5114.49 9849.44,5116.30 9844.67,5120.08"/>
    </edge>
    <edge id=":122786597_1" function="internal">
        <lane id=":122786597_1_0" index="0" disallow="tram rail_urban rail rail_electric rail_fast ship" speed="16.77" length="43.76" shape="9871.37,5116.83 9859.05,5112.35 9849.30,5108.60 9840.32,5105.57 9830.35,5103.23"/>
        <lane id=":122786597_1_1" index="1" disallow="tram rail_urban rail rail_electric rail_fast ship" speed="16.77" length="43.76" shape="9872.40,5113.80 9860.01,5109.30 9850.10,5105.52 9840.96,5102.44 9830.92,5100.08"/>
        <lane id=":122786597_1_2" index="2" disallow="tram rail_urban rail rail_electric rail_fast ship" speed="16.77" length="43.76" shape="9873.44,5110.78 9860.98,5106.26 9850.90,5102.43 9841.61,5099.31 9831.48,5096.94"/>
    </edge>
    <edge id=":122786597_4" function="internal">
        <lane id=":122786597_4_0" index="0" disallow="tram rail_urban rail rail_electric rail_fast ship" speed="10.00" length="29.03" shape="9874.48,5107.75 9866.64,5104.08 9861.93,5099.36 9861.06,5093.54 9864.73,5086.63"/>
    </edge>
    <edge id=":122786597_5" function="internal">
        <lane id=":122786597_5_0" index="0" disallow="tram rail_urban rail rail_electric rail_fast ship" speed="5.87" length="9.12" shape="9874.59,5094.78 9873.21,5097.04 9873.07,5098.94 9874.19,5100.49 9876.55,5101.69"/>
    </edge>
    <edge id=":122786597_6" function="internal">
        <lane id=":122786597_6_0" index="0" disallow="tram rail_urban rail rail_electric rail_fast ship" speed="27.78" length="38.74" shape="9872.13,5092.74 9863.55,5102.25 9856.23,5109.18 9849.99,5114.72 9844.67,5120.08"/>
        <lane id=":122786597_6_1" index="1" disallow="tram rail_urban rail rail_electric rail_fast ship" speed="27.78" length="38.74" shape="9869.66,5090.71 9861.10,5100.19 9853.80,5107.10 9847.57,5112.63 9842.25,5117.98"/>
    </edge>
    <edge id=":122786597_8" function="internal">
        <lane id=":122786597_8_0" index="0" disallow="tram rail_urban rail rail_electric rail_fast ship" speed="16.41" length="8.17" shape="9867.19,5088.67 9861.00,5093.99"/>
    </edge>
    <edge id=":122786597_17" function="internal">
        <lane id=":122786597_17_0" index="0" disallow="tram rail_urban rail rail_electric rail_fast ship" speed="16.41" length="30.22" shape="9861.00,5093.99 9852.98,5097.14 9843.14,5098.12 9831.48,5096.94"/>
    </edge>
    <edge id=":122786597_9" function="internal">
        <lane id=":122786597_9_0" index="0" disallow="tram rail_urban rail rail_electric rail_fast ship" speed="14.31" length="29.05" shape="9833.76,5084.34 9844.91,5086.05 9853.38,5086.66 9859.16,5086.17 9862.26,5084.59"/>
    </edge>