<?xml version="1.0" encoding="UTF-8"?>

<!-- generated on 2022-12-30 11:04:08 by Eclipse SUMO netedit Version 1.15.0
-->

<routes xmlns:xsi="http://www.w3.org/2001/XMLSchema-instance" xsi:noNamespaceSchemaLocation="http://sumo.dlr.de/xsd/routes_file.xsd">
    <!-- VTypes -->
    <vType id="pt_aerialway" vClass="bus"/>
    <vType id="pt_bus" vClass="bus"/>
    <vType id="pt_ferry" vClass="ship"/>
    <vType id="pt_light_rail" vClass="rail_urban"/>
    <vType id="pt_minibus" vClass="bus"/>
    <vType id="pt_monorail" vClass="rail"/>
    <vType id="pt_share_taxi" vClass="taxi"/>
    <vType id="pt_subway" vClass="rail_urban"/>
    <vType id="pt_train" vClass="rail"/>
    <vType id="pt_tram" vClass="tram"/>
    <vType id="pt_trolleybus" vClass="bus"/>
    <!-- Routes -->
    <route id="r_source_to_ATLANTIC_0" edges="ne0_source ne1_28050938#0 ne1_28050938#1-AddedOnRampEdge ne1_28050938#1 ne1_124100109-AddedOnRampEdge ne1_124100109 ne1_158724524#1-AddedOnRampEdge ne1_158724524#1 ne1_158724524#1-AddedOffRampEdge ne2_862063814 ne2_32296077 ne2_32296080 ne2_866210533-AddedOnRampEdge ne2_866210533 ne2_866210533-AddedOffRampEdge ne3_866210532 ne3_32296182#1-AddedOnRampEdge ne3_32296182#1 ne3_32296182#1-AddedOffRampEdge ne4_866203384 ne4_866203384-AddedOffRampEdge ne5_862573275#0 ne5_862573275#1-AddedOnRampEdge ne5_862573275#1 ne5_862573275#1-AddedOffRampEdge ne6_866201289 ne6_32296822-AddedOnRampEdge ne6_32296822 ne6_32296822-AddedOffRampEdge exit_to_ATLANTIC_BLVD"/>
    <route id="r_source_to_ATLANTIC_TRIGGS_0" edges="ne0_source ne1_28050938#0 ne1_28050938#1-AddedOnRampEdge ne1_28050938#1 ne1_124100109-AddedOnRampEdge ne1_124100109 ne1_158724524#1-AddedOnRampEdge ne1_158724524#1 ne1_158724524#1-AddedOffRampEdge ne2_862063814 ne2_32296077 ne2_32296080 ne2_866210533-AddedOnRampEdge ne2_866210533 ne2_866210533-AddedOffRampEdge ne3_866210532 ne3_32296182#1-AddedOnRampEdge ne3_32296182#1 ne3_32296182#1-AddedOffRampEdge ne4_866203384 ne4_866203384-AddedOffRampEdge ne5_862573275#0 ne5_862573275#1-AddedOnRampEdge ne5_862573275#1 ne5_862573275#1-AddedOffRampEdge ne6_866201289 ne6_32296822-AddedOnRampEdge ne6_32296822 ne6_32296822-AddedOffRampEdge ne7_864942146 ne7_95049424#1-AddedOnRampEdge ne7_95049424#1 exit_to_ATLANTIC_TRIGGS"/>
    <route id="r_source_to_CALZONA_0" edges="ne0_source ne1_28050938#0 ne1_28050938#1-AddedOnRampEdge ne1_28050938#1 ne1_124100109-AddedOnRampEdge ne1_124100109 ne1_158724524#1-AddedOnRampEdge ne1_158724524#1 ne1_158724524#1-AddedOffRampEdge ne2_862063814 ne2_32296077 ne2_32296080 ne2_866210533-AddedOnRampEdge ne2_866210533 ne2_866210533-AddedOffRampEdge ne3_866210532 ne3_32296182#1-AddedOnRampEdge ne3_32296182#1 ne3_32296182#1-AddedOffRampEdge ne4_866203384 ne4_866203384-AddedOffRampEdge ne5_862573275#0 ne5_862573275#1-AddedOnRampEdge ne5_862573275#1 ne5_862573275#1-AddedOffRampEdge ne6_866201289 ne6_32296822-AddedOnRampEdge ne6_32296822 ne6_32296822-AddedOffRampEdge ne7_864942146 ne7_95049424#1-AddedOnRampEdge ne7_95049424#1 ne8_864952781 ne8_975003948-AddedOnRampEdge ne8_975003948 ne8_975003949 ne8_975003949-AddedOffRampEdge ne9_386112525 ne9_386112536 ne9_94666085 ne9_864961753-AddedOnRampEdge ne9_864961753 ne9_864961753-AddedOffRampEdge ne10_864961752 ne10_397998296 ne10_881914877 ne10_881914877-AddedOffRampEdge exit_to_CALZONA_ST"/>
    <route id="r_source_to_DITMAN_0" edges="ne0_source ne1_28050938#0 ne1_28050938#1-AddedOnRampEdge ne1_28050938#1 ne1_124100109-AddedOnRampEdge ne1_124100109 ne1_158724524#1-AddedOnRampEdge ne1_158724524#1 ne1_158724524#1-AddedOffRampEdge ne2_862063814 ne2_32296077 ne2_32296080 ne2_866210533-AddedOnRampEdge ne2_866210533 ne2_866210533-AddedOffRampEdge ne3_866210532 ne3_32296182#1-AddedOnRampEdge ne3_32296182#1 ne3_32296182#1-AddedOffRampEdge ne4_866203384 ne4_866203384-AddedOffRampEdge ne5_862573275#0 ne5_862573275#1-AddedOnRampEdge ne5_862573275#1 ne5_862573275#1-AddedOffRampEdge ne6_866201289 ne6_32296822-AddedOnRampEdge ne6_32296822 ne6_32296822-AddedOffRampEdge ne7_864942146 ne7_95049424#1-AddedOnRampEdge ne7_95049424#1 ne8_864952781 ne8_975003948-AddedOnRampEdge ne8_975003948 ne8_975003949 ne8_975003949-AddedOffRampEdge ne9_386112525 ne9_386112536 ne9_94666085 ne9_864961753-AddedOnRampEdge ne9_864961753 ne9_864961753-AddedOffRampEdge exit_to_DITMAN_AVE"/>
    <route id="r_source_to_EASTERN_0" edges="ne0_source ne1_28050938#0 ne1_28050938#1-AddedOnRampEdge ne1_28050938#1 ne1_124100109-AddedOnRampEdge ne1_124100109 ne1_158724524#1-AddedOnRampEdge ne1_158724524#1 ne1_158724524#1-AddedOffRampEdge ne2_862063814 ne2_32296077 ne2_32296080 ne2_866210533-AddedOnRampEdge ne2_866210533 ne2_866210533-AddedOffRampEdge ne3_866210532 ne3_32296182#1-AddedOnRampEdge ne3_32296182#1 ne3_32296182#1-AddedOffRampEdge ne4_866203384 ne4_866203384-AddedOffRampEdge ne5_862573275#0 ne5_862573275#1-AddedOnRampEdge ne5_862573275#1 ne5_862573275#1-AddedOffRampEdge ne6_866201289 ne6_32296822-AddedOnRampEdge ne6_32296822 ne6_32296822-AddedOffRampEdge ne7_864942146 ne7_95049424#1-AddedOnRampEdge ne7_95049424#1 ne8_864952781 ne8_975003948-AddedOnRampEdge ne8_975003948 ne8_975003949 ne8_975003949-AddedOffRampEdge exit_to_EASTERN_AVE"/>
    <route id="r_source_to_FLORENCE_0" edges="ne0_source exit_to_I605"/>
    <route id="r_source_to_GARFIELD_0" edges="ne0_source ne1_28050938#0 ne1_28050938#1-AddedOnRampEdge ne1_28050938#1 ne1_124100109-AddedOnRampEdge ne1_124100109 ne1_158724524#1-AddedOnRampEdge ne1_158724524#1 ne1_158724524#1-AddedOffRampEdge ne2_862063814 ne2_32296077 ne2_32296080 ne2_866210533-AddedOnRampEdge ne2_866210533 ne2_866210533-AddedOffRampEdge ne3_866210532 ne3_32296182#1-AddedOnRampEdge ne3_32296182#1 ne3_32296182#1-AddedOffRampEdge ne4_866203384 ne4_866203384-AddedOffRampEdge exit_to_GARFIELD_AVE"/>
    <route id="r_source_to_I710_0" edges="ne0_source ne1_28050938#0 ne1_28050938#1-AddedOnRampEdge ne1_28050938#1 ne1_124100109-AddedOnRampEdge ne1_124100109 ne1_158724524#1-AddedOnRampEdge ne1_158724524#1 ne1_158724524#1-AddedOffRampEdge ne2_862063814 ne2_32296077 ne2_32296080 ne2_866210533-AddedOnRampEdge ne2_866210533 ne2_866210533-AddedOffRampEdge ne3_866210532 ne3_32296182#1-AddedOnRampEdge ne3_32296182#1 ne3_32296182#1-AddedOffRampEdge ne4_866203384 ne4_866203384-AddedOffRampEdge ne5_862573275#0 ne5_862573275#1-AddedOnRampEdge ne5_862573275#1 ne5_862573275#1-AddedOffRampEdge ne6_866201289 ne6_32296822-AddedOnRampEdge ne6_32296822 ne6_32296822-AddedOffRampEdge ne7_864942146 ne7_95049424#1-AddedOnRampEdge ne7_95049424#1 ne8_864952781 ne8_975003948-AddedOnRampEdge ne8_975003948 ne8_975003949 ne8_975003949-AddedOffRampEdge ne9_386112525 exit_to_I710"/>
    <route id="r_source_to_LAKEWOOD_0" edges="ne0_source ne1_28050938#0 ne1_28050938#1-AddedOnRampEdge ne1_28050938#1 ne1_124100109-AddedOnRampEdge ne1_124100109 ne1_158724524#1-AddedOnRampEdge ne1_158724524#1 ne1_158724524#1-AddedOffRampEdge 139639762 exit_to_LAKEWOOD"/>
    <route id="r_source_to_PARAMOUNT_0" edges="ne0_source ne1_28050938#0 ne1_28050938#1-AddedOnRampEdge ne1_28050938#1 ne1_124100109-AddedOnRampEdge ne1_124100109 ne1_158724524#1-AddedOnRampEdge ne1_158724524#1 ne1_158724524#1-AddedOffRampEdge ne2_862063814 ne2_32296077 ne2_32296080 ne2_866210533-AddedOnRampEdge ne2_866210533 ne2_866210533-AddedOffRampEdge exit_to_PARAMOUNT_BLVD"/>
    <route id="r_source_to_SLAUSON_0" edges="ne0_source ne1_28050938#0 ne1_28050938#1-AddedOnRampEdge ne1_28050938#1 ne1_124100109-AddedOnRampEdge ne1_124100109 ne1_158724524#1-AddedOnRampEdge ne1_158724524#1 ne1_158724524#1-AddedOffRampEdge ne2_862063814 ne2_32296077 ne2_32296080 ne2_866210533-AddedOnRampEdge ne2_866210533 ne2_866210533-AddedOffRampEdge ne3_866210532 ne3_32296182#1-AddedOnRampEdge ne3_32296182#1 ne3_32296182#1-AddedOffRampEdge exit_to_SLAUSON_AVE"/>
    <route id="r_source_to_WASHINGTON_0" edges="ne0_source ne1_28050938#0 ne1_28050938#1-AddedOnRampEdge ne1_28050938#1 ne1_124100109-AddedOnRampEdge ne1_124100109 ne1_158724524#1-AddedOnRampEdge ne1_158724524#1 ne1_158724524#1-AddedOffRampEdge ne2_862063814 ne2_32296077 ne2_32296080 ne2_866210533-AddedOnRampEdge ne2_866210533 ne2_866210533-AddedOffRampEdge ne3_866210532 ne3_32296182#1-AddedOnRampEdge ne3_32296182#1 ne3_32296182#1-AddedOffRampEdge ne4_866203384 ne4_866203384-AddedOffRampEdge ne5_862573275#0 ne5_862573275#1-AddedOnRampEdge ne5_862573275#1 ne5_862573275#1-AddedOffRampEdge exit_to_WASHINGTON_BLVD"/>
    <routeDistribution id="sourceRouteDist">
        <route refId="r_source_to_PARAMOUNT_0" probability="50"/>
        <route refId="r_source_to_SLAUSON_0" probability="50"/>
    </routeDistribution>
    <!-- Vehicles, persons and containers (sorted by depart) -->
    <flow id="flow_ATLANTIC_BLVD" begin="0.00" departLane="free" from="source_ATLANTIC_BLVD" to="destination_edge" number="310" period="exp(0.09)"/>
    <flow id="flow_ATLANTIC_TRIGGS" begin="0.00" from="source_ATLANTIC_TRIGGS" to="destination_edge" number="129" period="exp(0.04)"/>
    <flow id="flow_CALZONA" begin="0.00" from="source_CALZONA" to="destination_edge" number="69" period="exp(0.02)"/>
    <flow id="flow_DITMAN" begin="0.00" from="source_DITMAN" to="destination_edge" number="127" period="exp(0.04)"/>
    <flow id="flow_DOWNEY" begin="0.00" from="source_DOWNEY" to="destination_edge" number="163" period="exp(0.05)"/>
    <flow id="flow_FLORENCE_AVE" begin="0.00" departLane="free" departSpeed="speedLimit" from="source_FLORENCE" to="destination_edge" number="205" period="exp(0.06)"/>
    <flow id="flow_I710" begin="0.00" from="28895784" to="destination_edge" number="1125" period="exp(0.31)"/>
    <flow id="flow_NB_LAKEWOOD" begin="0.00" departLane="free" from="source_NB_LAKEWOOD" to="destination_edge" number="209" period="exp(0.06)"/>
    <flow id="flow_PARAMOUNT_BLVD" begin="0.00" departLane="free" from="source_PARAMOUNT_BLVD" to="destination_edge" number="289" period="exp(0.08)"/>
    <flow id="flow_SB_605" begin="0.00" from="source_I605_SB" to="destination_edge" number="380" period="exp(0.11)"/>
    <flow id="flow_SB_LAKEWOOD" begin="0.00" departLane="allowed" from="source_SB_LAKEWOOD" to="destination_edge" number="165" period="exp(0.05)"/>
    <flow id="flow_STUDEBAKER" begin="0.00" from="source_STUDEBAKER" to="destination_edge" number="1274" period="exp(0.35)"/>
    <flow id="flow_TELEGRAPH_GARFIELD" begin="0.00" departLane="free" from="source_TELEGRAPH_GARFIELD" to="destination_edge" number="363" period="exp(0.10)"/>
    <flow id="flow_TELGRAPH_WASHINGTON" begin="0.00" from="source_TELEGRAPH_WASHINGTON" to="destination_edge" number="435" period="exp(0.12)"/>
    <flow id="flow_THROUGH" begin="0.00" from="ne0_source" to="destination_edge" departLane="free" departSpeed="avg"  end="3600.00" period="exp(2.48)"/>
    <flow id="flow_bus_LAKEWOOD_0" type="pt_bus" begin="0.00" departLane="allowed" color="red" from="source_SB_LAKEWOOD" to="863776290#1-AddedOffRampEdge" end="3600.00" vehsPerHour="4.00"/>
</routes>
