[General]
cmdenv-express-mode = true
cmdenv-autoflush = false
cmdenv-status-frequency = 20s
**.cmdenv-log-level = info

image-path = ../../images

network = I5_Scenario_Reduced

##########################################################
#            Simulation parameters                       #
##########################################################
#debug-on-errors = true
debug-on-errors = false
print-undisposed = true

sim-time-limit = 3610s

**.scalar-recording = false
**.vector-recording = false

*.playgroundSizeX = 13000m
*.playgroundSizeY = 13000m
*.playgroundSizeZ = 50m


##########################################################
# Annotation parameters                                  #
##########################################################
*.annotations.draw = true

##########################################################
# Obstacle parameters                                    #
##########################################################
#*.obstacles.obstacles = xmldoc("config.xml", "//AnalogueModel[@type='SimpleObstacleShadowing']/obstacles")

##########################################################
#            TraCIScenarioManager parameters             #
##########################################################
*.manager.updateInterval = 1s
*.manager.host = "localhost"
*.manager.port = 9999
*.manager.autoShutdown = true
*.manager.launchConfig = xmldoc("osm.launchd.xml")
# Initialize only DEFAULT_VEHTYPE, continuingVehicle, or pt_bus types
*.manager.moduleType = "DEFAULT_VEHTYPE=org.car2x.veins.nodes.Car continuingVehicle=smarthighway.CarApplication.BasicCar pt_bus=smarthighway.CarApplication.Bus *=0"
*.manager.moduleName = "DEFAULT_VEHTYPE=node continuingVehicle=continuingVeh pt_bus=bus *=0"
*.manager.moduleDisplayString = "DEFAULT_VEHTYPE='i=veins/node/car;is=vs' continuingVehicle='i=veins/node/car;is=vs' pt_bus='i=veins/node/car;is=vs' *=0"

##########################################################
#                       RSU SETTINGS                     #
#                                                        #
#                                                        #
##########################################################
# Global RSU settings
*.rsu[*].applType = "RSUApp"
*.rsu[*].appl.headerLength = 80 bit
*.rsu[*].appl.sendBeacons = false
*.rsu[*].appl.dataOnSch = false
*.rsu[*].appl.beaconInterval = 1s
*.rsu[*].appl.beaconUserPriority = 7
*.rsu[*].appl.dataUserPriority = 5
*.rsu[*].nic.phy80211p.antennaOffsetZ = 0 m
# rsu[0] - I605 exit : calculated using GatcomSUMO
*.rsu[0].mobility.x = 11850
*.rsu[0].mobility.y = 11700
*.rsu[0].mobility.z = 3
*.rsu[0].appl.areaDetectors = "e2_I605_exit_0 e2_I605_exit_1 e2_I605_exit_2 e2_I605_exit_3 e2_I605_exit_4 e2_I605_exit_5"
# rsu[1] - FLORENCE entry
*.rsu[1].mobility.x = 11560
*.rsu[1].mobility.y = 11180
*.rsu[1].mobility.z = 3
*.rsu[1].appl.areaDetectors = "e2_FLORENCE_enter_0 e2_FLORENCE_enter_1 e2_FLORENCE_enter_2 e2_FLORENCE_enter_3 e2_FLORENCE_enter_4"
# rsu[2] - I605 NB entry
*.rsu[2].mobility.x = 11440
*.rsu[2].mobility.y = 10950
*.rsu[2].mobility.z = 3
*.rsu[2].appl.areaDetectors = "e2_I605_NB_enter_0 e2_I605_NB_enter_1 e2_I605_NB_enter_2 e2_I605_NB_enter_3 e2_I605_NB_enter_4 e2_I605_NB_enter_5"
# rsu[3] - I605 SB entry
*.rsu[3].mobility.x = 11330
*.rsu[3].mobility.y = 10750
*.rsu[3].mobility.z = 3
*.rsu[3].appl.areaDetectors = "e2_I605_SB_enter_0 e2_I605_SB_enter_1 e2_I605_SB_enter_2 e2_I605_SB_enter_3 e2_I605_SB_enter_4"
# rsu[4] - LAKEWOOD exit
*.rsu[4].mobility.x = 10390
*.rsu[4].mobility.y = 9470
*.rsu[4].mobility.z = 3
*.rsu[4].appl.areaDetectors = "e2_LAKEWOOD_exit_0 e2_LAKEWOOD_exit_1 e2_LAKEWOOD_exit_2 e2_LAKEWOOD_exit_3 e2_LAKEWOOD_exit_4"
# rsu[5] - LAKEWOOD NB entry
*.rsu[5].mobility.x = 10190
*.rsu[5].mobility.y = 9295
*.rsu[5].mobility.z = 3
*.rsu[5].appl.areaDetectors = "e2_LAKEWOOD_NB_enter_0 e2_LAKEWOOD_NB_enter_1 e2_LAKEWOOD_NB_enter_2 e2_LAKEWOOD_NB_enter_3 e2_LAKEWOOD_NB_enter_4"
# rsu[6] - LAKEWOOD SB entry
*.rsu[6].mobility.x = 9920
*.rsu[6].mobility.y = 9055
*.rsu[6].mobility.z = 3
*.rsu[6].appl.areaDetectors = "e2_LAKEWOOD_SB_enter_0 e2_LAKEWOOD_SB_enter_1 e2_LAKEWOOD_SB_enter_2 e2_LAKEWOOD_SB_enter_3 e2_LAKEWOOD_SB_enter_4"
# rsu[7] - PARAMOUNT exit
*.rsu[7].mobility.x = 9600
*.rsu[7].mobility.y = 8775
*.rsu[7].mobility.z = 3
*.rsu[7].appl.areaDetectors = "e2_PARAMOUNT_exit_0 e2_PARAMOUNT_exit_1 e2_PARAMOUNT_exit_2 e2_PARAMOUNT_exit_3 e2_PARAMOUNT_exit_4"
# rsu[8] - PARAMOUNT entry
*.rsu[8].mobility.x = 9395
*.rsu[8].mobility.y = 8560
*.rsu[8].mobility.z = 3
*.rsu[8].appl.areaDetectors = "e2_PARAMOUNT_enter_0 e2_PARAMOUNT_enter_1 e2_PARAMOUNT_enter_2 e2_PARAMOUNT_enter_3 e2_PARAMOUNT_enter_4"
# rsu[9] - SLAUSON exit
*.rsu[9].mobility.x = 9070
*.rsu[9].mobility.y = 7510
*.rsu[9].mobility.z = 3
*.rsu[9].appl.areaDetectors = "e2_SLAUSON_exit_0 e2_SLAUSON_exit_1 e2_SLAUSON_exit_2 e2_SLAUSON_exit_3 e2_SLAUSON_exit_4"
# rsu[10] - GARFIELD exit
*.rsu[10].mobility.x = 8235
*.rsu[10].mobility.y = 6355
*.rsu[10].mobility.z = 3
*.rsu[10].appl.areaDetectors = "e2_GARFIELD_exit_0 e2_GARFIELD_exit_1 e2_GARFIELD_exit_2 e2_GARFIELD_exit_3 e2_GARFIELD_exit_4"
# rsu[11] - GARFIELD entry
*.rsu[11].mobility.x = 7880
*.rsu[11].mobility.y = 6040
*.rsu[11].mobility.z = 3
*.rsu[11].appl.areaDetectors = "e2_GARFIELD_enter_0 e2_GARFIELD_enter_1 e2_GARFIELD_enter_2 e2_GARFIELD_enter_3 e2_GARFIELD_enter_4"

*.TMC.parkingLots = ""

##########################################################
#            11p specific parameters                     #
#                                                        #
#                    NIC-Settings                        #
##########################################################
*.connectionManager.sendDirect = true
*.connectionManager.maxInterfDist = 200m
*.connectionManager.drawMaxIntfDist = true

*.**.nic.mac1609_4.useServiceChannel = false

*.**.nic.mac1609_4.txPower = 20mW
*.**.nic.mac1609_4.bitrate = 6Mbps
*.**.nic.phy80211p.minPowerLevel = -110dBm

*.**.nic.phy80211p.useNoiseFloor = true
*.**.nic.phy80211p.noiseFloor = -98dBm

*.**.nic.phy80211p.decider = xmldoc("config.xml")
*.**.nic.phy80211p.analogueModels = xmldoc("config.xml")
*.**.nic.phy80211p.usePropagationDelay = false

*.**.nic.phy80211p.antenna = xmldoc("antenna.xml", "/root/Antenna[@id='monopole']")
*.*node[*].nic.phy80211p.antennaOffsetY = 0 m
*.*node[*].nic.phy80211p.antennaOffsetZ = 1.895 m

##########################################################
#                      App Layer                         #
##########################################################
*.node[*].applType = "CarApp"
*.*node[*].appl.headerLength = 80 bit
*.*node[*].appl.sendBeacons = false
*.*node[*].appl.dataOnSch = false
*.*node[*].appl.beaconInterval = 1s

##########################################################
#                      Mobility                          #
##########################################################
*.*node[*].veinsmobility.x = 0
*.*node[*].veinsmobility.y = 0
*.*node[*].veinsmobility.z = 0
*.*node[*].veinsmobility.setHostSpeed = false
*.bus[*].veinsmobility.x = 0
*.bus[*].veinsmobility.y = 0
*.bus[*].veinsmobility.z = 0
*.bus[*].veinsmobility.setHostSpeed = false
*.continuingVeh[*].veinsmobility.x = 0
*.continuingVeh[*].veinsmobility.y = 0
*.continuingVeh[*].veinsmobility.z = 0
*.continuingVeh[*].veinsmobility.setHostSpeed = false

##########################################################
#                   GymConnection                        #
##########################################################
*.GymConnection.host = "127.0.0.1"
*.GymConnection.port = 5555
*.GymConnection.action_space = "gym.spaces.MultiBinary(5)"
*.GymConnection.observation_space = "gym.spaces.Tuple((  \
gym.spaces.Box(low=0, high=4000, shape=(1,), dtype=np.float32),  \
gym.spaces.Box(low=np.array([0.0, 0.0, 0.0], dtype=np.float32), high=np.array([100.0, 100.0, 10000.0], dtype=np.float32), dtype=np.float32),  \
gym.spaces.Box(low=np.array([0.0, 0.0, 0.0], dtype=np.float32), high=np.array([100.0, 100.0, 10000.0], dtype=np.float32), dtype=np.float32),  \
gym.spaces.Box(low=np.array([0.0, 0.0, 0.0], dtype=np.float32), high=np.array([100.0, 100.0, 10000.0], dtype=np.float32), dtype=np.float32),  \
gym.spaces.Box(low=np.array([0.0, 0.0, 0.0], dtype=np.float32), high=np.array([100.0, 100.0, 10000.0], dtype=np.float32), dtype=np.float32),  \
gym.spaces.Box(low=np.array([0.0, 0.0, 0.0], dtype=np.float32), high=np.array([100.0, 100.0, 10000.0], dtype=np.float32), dtype=np.float32),  \
gym.spaces.Box(low=np.array([0.0, 0.0, 0.0], dtype=np.float32), high=np.array([100.0, 100.0, 10000.0], dtype=np.float32), dtype=np.float32),  \
gym.spaces.Box(low=np.array([0.0, 0.0, 0.0], dtype=np.float32), high=np.array([100.0, 100.0, 10000.0], dtype=np.float32), dtype=np.float32),  \
gym.spaces.Box(low=np.array([0.0, 0.0, 0.0], dtype=np.float32), high=np.array([100.0, 100.0, 10000.0], dtype=np.float32), dtype=np.float32),  \
gym.spaces.Box(low=np.array([0.0, 0.0, 0.0], dtype=np.float32), high=np.array([100.0, 100.0, 10000.0], dtype=np.float32), dtype=np.float32),  \
gym.spaces.Box(low=np.array([0.0, 0.0, 0.0], dtype=np.float32), high=np.array([100.0, 100.0, 10000.0], dtype=np.float32), dtype=np.float32),  \
gym.spaces.Box(low=np.array([0.0, 0.0, 0.0], dtype=np.float32), high=np.array([100.0, 100.0, 10000.0], dtype=np.float32), dtype=np.float32),  \
gym.spaces.Box(low=np.array([0.0, 0.0, 0.0], dtype=np.float32), high=np.array([100.0, 100.0, 10000.0], dtype=np.float32), dtype=np.float32),  \
))"

[Config Default]

[Config WithBeaconing]
*.rsu[*].appl.sendBeacons = true
*.node[*].appl.sendBeacons = true

[Config WithChannelSwitching]
*.**.nic.mac1609_4.useServiceChannel = true
*.node[*].appl.dataOnSch = true
*.rsu[*].appl.dataOnSch = true

